@<TRIPOS>MOLECULE
MOL012217
   59    58     1     1     0
SMALL
GASTEIGER


@<TRIPOS>ATOM
      1 O          -8.042203   -1.197393   -0.139657 O.2       1 <1>        -0.296321 
      2 C           5.622455    1.020356    0.229069 C.3       1 <1>        -0.043879 
      3 C           4.400797    0.042331    0.194509 C.3       1 <1>        -0.050451 
      4 C           3.045179    0.768548   -0.049924 C.3       1 <1>        -0.052574 
      5 C           0.464652    0.582243   -0.298866 C.3       1 <1>        -0.043870 
      6 C           1.829806   -0.183291   -0.255786 C.3       1 <1>        -0.050451 
      7 C           6.963597    0.219336    0.294261 C.3       1 <1>        -0.050451 
      8 C           8.223894    1.135025    0.285670 C.3       1 <1>        -0.052582 
      9 C          -0.737585   -0.415624   -0.258819 C.3       1 <1>        -0.050173 
     10 C           9.557847    0.352306    0.138072 C.3       1 <1>        -0.050700 
     11 C           5.518195    2.045560    1.398795 C.3       1 <1>        -0.062415 
     12 C          -2.119563    0.303584   -0.264541 C.3       1 <1>        -0.049121 
     13 C           0.369015    1.539546   -1.524400 C.3       1 <1>        -0.062415 
     14 C          10.792050    1.288485   -0.055819 C.3       1 <1>        -0.046721 
     15 C          -3.289063   -0.601065    0.216771 C.3       1 <1>        -0.031607 
     16 C          12.088324    0.436201   -0.140865 C.3       1 <1>        -0.062665 
     17 C          10.942935    2.344875    1.076606 C.3       1 <1>        -0.062665 
     18 C          -4.671767    0.036504    0.152092 C.2       1 <1>        -0.069604 
     19 C          -4.734876    1.543572    0.310241 C.3       1 <1>        -0.043398 
     20 C          -5.758630   -0.737918   -0.020762 C.2       1 <1>        -0.023464 
     21 C          -7.176318   -0.334316   -0.119012 C.2       1 <1>         0.143051 
     22 H           5.625914    1.590816   -0.716369 H         1 <1>         0.029813 
     23 H           4.545208   -0.678407   -0.626768 H         1 <1>         0.026785 
     24 H           4.353606   -0.524815    1.137550 H         1 <1>         0.026785 
     25 H           2.797256    1.400085    0.814282 H         1 <1>         0.026545 
     26 H           3.179728    1.407210   -0.934182 H         1 <1>         0.026545 
     27 H           0.399065    1.201587    0.613829 H         1 <1>         0.029813 
     28 H           1.813646   -0.890335    0.589899 H         1 <1>         0.026785 
     29 H           1.961321   -0.766624   -1.181572 H         1 <1>         0.026785 
     30 H           7.013701   -0.448579   -0.581075 H         1 <1>         0.026785 
     31 H           6.980846   -0.410012    1.199602 H         1 <1>         0.026785 
     32 H           8.274726    1.672031    1.243914 H         1 <1>         0.026545 
     33 H           8.139660    1.865384   -0.536081 H         1 <1>         0.026545 
     34 H          -0.682898   -1.111356   -1.112629 H         1 <1>         0.026794 
     35 H          -0.659646   -1.010213    0.666192 H         1 <1>         0.026794 
     36 H           9.485944   -0.308497   -0.739946 H         1 <1>         0.026777 
     37 H           9.701596   -0.281672    1.028129 H         1 <1>         0.026777 
     38 H           6.317715    2.797130    1.353325 H         1 <1>         0.023242 
     39 H           4.586436    2.622726    1.368886 H         1 <1>         0.023242 
     40 H           5.577147    1.521110    2.364592 H         1 <1>         0.023242 
     41 H          -2.354661    0.639122   -1.287126 H         1 <1>         0.026838 
     42 H          -2.048332    1.180387    0.396999 H         1 <1>         0.026838 
     43 H          -0.564901    2.118637   -1.513536 H         1 <1>         0.023242 
     44 H           1.177092    2.282726   -1.530564 H         1 <1>         0.023242 
     45 H           0.413622    0.960509   -2.459365 H         1 <1>         0.023242 
     46 H          10.676395    1.830415   -1.012172 H         1 <1>         0.029548 
     47 H          -3.261843   -1.522559   -0.388417 H         1 <1>         0.031000 
     48 H          -3.111931   -0.880267    1.267922 H         1 <1>         0.031000 
     49 H          12.009888   -0.309862   -0.946484 H         1 <1>         0.023233 
     50 H          12.961140    1.075140   -0.348816 H         1 <1>         0.023233 
     51 H          12.260656   -0.090199    0.810616 H         1 <1>         0.023233 
     52 H          11.889342    2.895894    0.961676 H         1 <1>         0.023233 
     53 H          10.131249    3.087373    1.049130 H         1 <1>         0.023233 
     54 H          10.943955    1.852406    2.061222 H         1 <1>         0.023233 
     55 H          -5.748928    1.946479    0.408243 H         1 <1>         0.027446 
     56 H          -4.272399    2.032555   -0.559794 H         1 <1>         0.027446 
     57 H          -4.193107    1.837859    1.221269 H         1 <1>         0.027446 
     58 H          -5.613386   -1.816457   -0.098288 H         1 <1>         0.064887 
     59 H          -7.529372    0.691267   -0.180745 H         1 <1>         0.107513 
@<TRIPOS>BOND
     1   21    1 2    
     2    3    2 1    
     3    2    7 1    
     4    2   11 1    
     5    2   22 1    
     6    4    3 1    
     7    3   23 1    
     8    3   24 1    
     9    6    4 1    
    10    4   25 1    
    11    4   26 1    
    12    5    6 1    
    13    9    5 1    
    14    5   13 1    
    15    5   27 1    
    16    6   28 1    
    17    6   29 1    
    18    7    8 1    
    19    7   30 1    
    20    7   31 1    
    21    8   10 1    
    22    8   32 1    
    23    8   33 1    
    24   12    9 1    
    25    9   34 1    
    26    9   35 1    
    27   10   14 1    
    28   10   36 1    
    29   10   37 1    
    30   11   38 1    
    31   11   39 1    
    32   11   40 1    
    33   15   12 1    
    34   12   41 1    
    35   12   42 1    
    36   13   43 1    
    37   13   44 1    
    38   13   45 1    
    39   14   16 1    
    40   14   17 1    
    41   14   46 1    
    42   18   15 1    
    43   15   47 1    
    44   15   48 1    
    45   16   49 1    
    46   16   50 1    
    47   16   51 1    
    48   17   52 1    
    49   17   53 1    
    50   17   54 1    
    51   18   19 1    
    52   20   18 2    
    53   19   55 1    
    54   19   56 1    
    55   19   57 1    
    56   20   21 1    
    57   20   58 1    
    58   21   59 1    
@<TRIPOS>SUBSTRUCTURE
     1 ****        2 TEMP              0 ****  ****    0 ROOT 
@<TRIPOS>NORMAL
@<TRIPOS>FF_PBC
FORCE_FIELD_SETUP_FEATURE Force Field Setup information
v1.0  0 0.000000 0.000000 0.000000 0.000000 0.000000 0.000000 NONE 0 0 0 0 1 0 0 0 0 0 0 0 0
