@<TRIPOS>MOLECULE
MOL012221
   43    43     1     1     0
SMALL
GASTEIGER


@<TRIPOS>ATOM
      1 C          -8.791677    1.909677    0.921654 C.3       1 <1>        -0.062940 
      2 C          -8.795107    0.397805    0.561628 C.3       1 <1>        -0.029649 
      3 C          -7.782285    0.013493   -0.556398 C.3       1 <1>         0.056424 
      4 C          -6.310139   -0.042008   -0.034365 C.3       1 <1>        -0.011193 
      5 C          -5.219616    0.053211   -1.147460 C.3       1 <1>         0.012738 
      6 N          -3.921922   -0.530012   -0.696549 N.3       1 <1>        -0.299302 
      7 C          -3.226115    0.281368    0.342416 C.3       1 <1>         0.012729 
      8 C          -2.916168    1.694636   -0.223500 C.3       1 <1>        -0.037205 
      9 C          -4.220380    2.392227   -0.689503 C.3       1 <1>        -0.050226 
     10 C          -4.993735    1.496363   -1.691706 C.3       1 <1>        -0.037205 
     11 C          -1.950073   -0.359845    0.976020 C.3       1 <1>        -0.011443 
     12 C          -2.209711   -1.615246    1.860910 C.3       1 <1>         0.053865 
     13 C          -2.664614   -2.870302    1.070247 C.3       1 <1>        -0.038896 
     14 O          -0.968739   -1.906741    2.531878 O.3       1 <1>        -0.392006 
     15 O          -8.196440   -1.284905   -1.025497 O.3       1 <1>        -0.391743 
     16 C          -3.099932   -1.069948   -1.816519 C.3       1 <1>        -0.012201 
     17 H          -9.579663    2.115172    1.663768 H         1 <1>         0.023056 
     18 H          -8.995576    2.518337    0.026872 H         1 <1>         0.023056 
     19 H          -7.832609    2.232416    1.352030 H         1 <1>         0.023056 
     20 H          -8.600122   -0.209657    1.460068 H         1 <1>         0.028737 
     21 H          -9.809684    0.150660    0.202829 H         1 <1>         0.028737 
     22 H          -7.894353    0.743949   -1.373914 H         1 <1>         0.059347 
     23 H          -6.186832   -1.001214    0.493462 H         1 <1>         0.030516 
     24 H          -6.155897    0.753168    0.701230 H         1 <1>         0.030516 
     25 H          -5.609024   -0.548414   -1.983996 H         1 <1>         0.046325 
     26 H          -3.911448    0.417934    1.192582 H         1 <1>         0.046325 
     27 H          -2.444142    2.326321    0.547655 H         1 <1>         0.028031 
     28 H          -2.210448    1.611555   -1.063715 H         1 <1>         0.028031 
     29 H          -3.971153    3.353507   -1.170541 H         1 <1>         0.026625 
     30 H          -4.849516    2.621481    0.185275 H         1 <1>         0.026625 
     31 H          -5.949577    1.978417   -1.948135 H         1 <1>         0.028031 
     32 H          -4.402738    1.439071   -2.619531 H         1 <1>         0.028031 
     33 H          -1.175424   -0.568347    0.225899 H         1 <1>         0.030507 
     34 H          -1.515397    0.386049    1.662783 H         1 <1>         0.030507 
     35 H          -2.978496   -1.365682    2.614839 H         1 <1>         0.059080 
     36 H          -2.828401   -3.709651    1.764056 H         1 <1>         0.025443 
     37 H          -3.607006   -2.687321    0.534657 H         1 <1>         0.025443 
     38 H          -1.884363   -3.169298    0.354851 H         1 <1>         0.025443 
     39 H          -1.027516   -2.635384    3.143175 H         1 <1>         0.209765 
     40 H          -7.698895   -1.616327   -1.764630 H         1 <1>         0.209777 
     41 H          -3.692770   -1.767840   -2.426755 H         1 <1>         0.039081 
     42 H          -2.236044   -1.644974   -1.469308 H         1 <1>         0.039081 
     43 H          -2.727482   -0.272819   -2.474446 H         1 <1>         0.039081 
@<TRIPOS>BOND
     1    1    2 1    
     2    1   17 1    
     3    1   18 1    
     4    1   19 1    
     5    2    3 1    
     6    2   20 1    
     7    2   21 1    
     8    3    4 1    
     9    3   15 1    
    10    3   22 1    
    11    4    5 1    
    12    4   23 1    
    13    4   24 1    
    14    5    6 1    
    15    5   10 1    
    16    5   25 1    
    17    6    7 1    
    18    6   16 1    
    19    7    8 1    
    20    7   11 1    
    21    7   26 1    
    22    8    9 1    
    23    8   27 1    
    24    8   28 1    
    25    9   10 1    
    26    9   29 1    
    27    9   30 1    
    28   10   31 1    
    29   10   32 1    
    30   11   12 1    
    31   11   33 1    
    32   11   34 1    
    33   12   13 1    
    34   12   14 1    
    35   12   35 1    
    36   13   36 1    
    37   13   37 1    
    38   13   38 1    
    39   14   39 1    
    40   15   40 1    
    41   16   41 1    
    42   16   42 1    
    43   16   43 1    
@<TRIPOS>SUBSTRUCTURE
     1 ****        1 TEMP              0 ****  ****    0 ROOT 
@<TRIPOS>NORMAL
@<TRIPOS>FF_PBC
FORCE_FIELD_SETUP_FEATURE Force Field Setup information
v1.0  0 0.000000 0.000000 0.000000 0.000000 0.000000 0.000000 NONE 0 0 0 0 1 0 0 0 0 0 0 0 0
