@<TRIPOS>MOLECULE
MOL012235
   52    53     1     1     0
SMALL
GASTEIGER


@<TRIPOS>ATOM
      1 C           0.886585   -0.604353    0.880236 C.3       1 <1>        -0.010476 
      2 C           0.878764   -1.113363   -0.581904 C.3       1 <1>         0.169266 
      3 C           1.875087   -0.423038   -1.566905 C.3       1 <1>         0.016773 
      4 C           3.330948   -0.179195   -1.066104 C.3       1 <1>         0.015263 
      5 N           4.001635    0.846109   -1.914120 N.3       1 <1>        -0.299212 
      6 C           4.751943    0.488906   -3.150161 C.3       1 <1>         0.012740 
      7 C           5.715366   -0.663807   -2.777476 C.3       1 <1>        -0.037205 
      8 C           4.928264   -1.880634   -2.227382 C.3       1 <1>        -0.050225 
      9 C           4.212167   -1.458162   -0.916372 C.3       1 <1>        -0.037115 
     10 C           3.788921    0.234913   -4.361116 C.3       1 <1>        -0.011193 
     11 C           4.406875    0.230402   -5.795653 C.3       1 <1>         0.056424 
     12 C           4.769019   -1.204558   -6.300124 C.3       1 <1>        -0.029649 
     13 C           5.517543   -1.205718   -7.662374 C.3       1 <1>        -0.062940 
     14 O           3.393809    0.812243   -6.649970 O.3       1 <1>        -0.391743 
     15 C           3.624446    2.271517   -1.741004 C.3       1 <1>        -0.012200 
     16 O          -0.459756   -0.898751   -1.062346 O.3       1 <1>        -0.341095 
     17 O           1.054589   -2.544142   -0.636440 O.3       1 <1>        -0.346195 
     18 C          -0.163118   -3.132290   -1.118232 C.3       1 <1>         0.079354 
     19 C          -0.778266   -1.982315   -1.937337 C.3       1 <1>         0.108199 
     20 C          -2.304856   -2.094600   -2.150119 C.3       1 <1>         0.072668 
     21 O          -2.561652   -3.281039   -2.920404 O.3       1 <1>        -0.392378 
     22 H           0.822880    0.493201    0.894610 H         1 <1>         0.028120 
     23 H           0.013168   -1.010980    1.412132 H         1 <1>         0.028120 
     24 H           1.792798   -0.929350    1.410366 H         1 <1>         0.028120 
     25 H           1.899491   -1.017664   -2.487557 H         1 <1>         0.033208 
     26 H           1.431569    0.554370   -1.817455 H         1 <1>         0.033208 
     27 H           3.254380    0.255054   -0.056156 H         1 <1>         0.046414 
     28 H           5.395709    1.347429   -3.418417 H         1 <1>         0.046325 
     29 H           6.368387   -0.931763   -3.618821 H         1 <1>         0.028031 
     30 H           6.378306   -0.295829   -1.974576 H         1 <1>         0.028031 
     31 H           4.202237   -2.258792   -2.961099 H         1 <1>         0.026625 
     32 H           5.627979   -2.709487   -2.019515 H         1 <1>         0.026625 
     33 H           3.623485   -2.298694   -0.519196 H         1 <1>         0.028032 
     34 H           5.012746   -1.248903   -0.185249 H         1 <1>         0.028032 
     35 H           3.068300    1.066719   -4.329145 H         1 <1>         0.030516 
     36 H           3.195639   -0.676922   -4.258773 H         1 <1>         0.030516 
     37 H           5.310676    0.863287   -5.815358 H         1 <1>         0.059347 
     38 H           3.841128   -1.793541   -6.402526 H         1 <1>         0.028737 
     39 H           5.414392   -1.717964   -5.572730 H         1 <1>         0.028737 
     40 H           5.814778   -2.232528   -7.932684 H         1 <1>         0.023056 
     41 H           6.433652   -0.595408   -7.590404 H         1 <1>         0.023056 
     42 H           4.884677   -0.815849   -8.476947 H         1 <1>         0.023056 
     43 H           3.664543    0.974277   -7.549190 H         1 <1>         0.209777 
     44 H           2.999675    2.450711   -0.854265 H         1 <1>         0.039081 
     45 H           3.071576    2.652251   -2.611874 H         1 <1>         0.039081 
     46 H           4.548521    2.855758   -1.620550 H         1 <1>         0.039081 
     47 H           0.014781   -4.042439   -1.712350 H         1 <1>         0.058741 
     48 H          -0.812412   -3.373728   -0.261584 H         1 <1>         0.058741 
     49 H          -0.275983   -1.878150   -2.916244 H         1 <1>         0.064301 
     50 H          -2.798519   -2.144324   -1.165594 H         1 <1>         0.058359 
     51 H          -2.662354   -1.189481   -2.672684 H         1 <1>         0.058359 
     52 H          -3.487115   -3.424589   -3.107312 H         1 <1>         0.209508 
@<TRIPOS>BOND
     1    1    2 1    
     2    1   22 1    
     3    1   23 1    
     4    1   24 1    
     5    2    3 1    
     6    2   16 1    
     7    2   17 1    
     8    3    4 1    
     9    3   25 1    
    10    3   26 1    
    11    4    5 1    
    12    4    9 1    
    13    4   27 1    
    14    5    6 1    
    15    5   15 1    
    16    6    7 1    
    17    6   10 1    
    18    6   28 1    
    19    7    8 1    
    20    7   29 1    
    21    7   30 1    
    22    8    9 1    
    23    8   31 1    
    24    8   32 1    
    25    9   33 1    
    26    9   34 1    
    27   10   11 1    
    28   10   35 1    
    29   10   36 1    
    30   11   12 1    
    31   11   14 1    
    32   11   37 1    
    33   12   13 1    
    34   12   38 1    
    35   12   39 1    
    36   13   40 1    
    37   13   41 1    
    38   13   42 1    
    39   14   43 1    
    40   15   44 1    
    41   15   45 1    
    42   15   46 1    
    43   16   19 1    
    44   17   18 1    
    45   18   19 1    
    46   18   47 1    
    47   18   48 1    
    48   19   20 1    
    49   19   49 1    
    50   20   21 1    
    51   20   50 1    
    52   20   51 1    
    53   21   52 1    
@<TRIPOS>SUBSTRUCTURE
     1 ****        1 TEMP              0 ****  ****    0 ROOT 
@<TRIPOS>NORMAL
@<TRIPOS>FF_PBC
FORCE_FIELD_SETUP_FEATURE Force Field Setup information
v1.0  0 0.000000 0.000000 0.000000 0.000000 0.000000 0.000000 NONE 0 0 0 0 1 0 0 0 0 0 0 0 0
