@<TRIPOS>MOLECULE
MOL012220
   17    17     1     1     0
SMALL
GASTEIGER


@<TRIPOS>ATOM
      1 O          -8.622672    0.207731   -1.242050 O.3       1 <1>        -0.359486 
      2 O         -10.989363    2.619713   -3.927740 O.3       1 <1>        -0.390332 
      3 C          -9.943441    0.517042   -0.902757 C.ar      1 <1>         0.077923 
      4 C         -10.749458    1.346584   -1.831575 C.ar      1 <1>         0.007512 
      5 C         -10.520434    0.054135    0.305567 C.ar      1 <1>        -0.031596 
      6 C         -12.085171    1.668802   -1.505092 C.ar      1 <1>        -0.053941 
      7 C         -10.090403    1.828208   -3.128255 C.3       1 <1>         0.071626 
      8 C         -11.922945    0.397176    0.640019 C.ar      1 <1>        -0.059309 
      9 C         -12.682324    1.181126   -0.239305 C.ar      1 <1>        -0.061272 
     10 H          -8.167804   -0.326447   -0.600734 H         1 <1>         0.217326 
     11 H         -10.594673    2.927371   -4.738380 H         1 <1>         0.209848 
     12 H          -9.945297   -0.553358    0.995920 H         1 <1>         0.064330 
     13 H         -12.686463    2.274368   -2.174449 H         1 <1>         0.062181 
     14 H          -9.202150    2.420244   -2.851726 H         1 <1>         0.060792 
     15 H          -9.764413    0.936250   -3.688711 H         1 <1>         0.060792 
     16 H         -12.360177    0.039956    1.567075 H         1 <1>         0.061837 
     17 H         -13.709710    1.433098    0.004489 H         1 <1>         0.061769 
@<TRIPOS>BOND
     1    3    1 1    
     2    1   10 1    
     3    7    2 1    
     4    2   11 1    
     5    4    3 1    
     6    3    5 2    
     7    4    6 2    
     8    4    7 1    
     9    5    8 1    
    10    5   12 1    
    11    6    9 1    
    12    6   13 1    
    13    7   14 1    
    14    7   15 1    
    15    8    9 2    
    16    8   16 1    
    17    9   17 1    
@<TRIPOS>SUBSTRUCTURE
     1 ****        1 TEMP              0 ****  ****    0 ROOT 
@<TRIPOS>NORMAL
@<TRIPOS>FF_PBC
FORCE_FIELD_SETUP_FEATURE Force Field Setup information
v1.0  0 0.000000 0.000000 0.000000 0.000000 0.000000 0.000000 NONE 0 0 0 0 1 0 0 0 0 0 0 0 0
