@<TRIPOS>MOLECULE
MOL006384
   56    59     1     1     0
SMALL
GASTEIGER


@<TRIPOS>ATOM
      1 C          -3.680094    1.280186   -2.128569 C.ar      1 <1>         0.108312 
      2 C          -4.965285    0.699748   -1.664907 C.ar      1 <1>         0.132936 
      3 C          -5.163944    0.392100   -0.295936 C.ar      1 <1>         0.108312 
      4 C          -4.076676    0.651463    0.683868 C.ar      1 <1>        -0.023346 
      5 C          -2.857554    1.200401    0.248266 C.ar      1 <1>        -0.013507 
      6 C          -2.658020    1.521192   -1.185598 C.ar      1 <1>        -0.023346 
      7 O          -5.984964    0.456748   -2.591484 O.3       1 <1>        -0.355384 
      8 C          -1.701739    1.483588    1.217084 C.3       1 <1>         0.089094 
      9 O          -1.156421    2.759608    0.855526 O.3       1 <1>        -0.371219 
     10 C           0.193662    2.788126    1.316580 C.3       1 <1>         0.054370 
     11 C           0.712228    1.416742    0.820089 C.3       1 <1>         0.020452 
     12 C          -0.519247    0.496206    1.004147 C.3       1 <1>         0.020452 
     13 C           1.797296    0.846323    1.761962 C.3       1 <1>         0.089094 
     14 O           0.995968    0.284920    2.812045 O.3       1 <1>        -0.371219 
     15 C          -0.131860   -0.381594    2.227061 C.3       1 <1>         0.054370 
     16 C           2.783344   -0.132033    1.089236 C.ar      1 <1>        -0.013507 
     17 C           4.215934   -0.072157    1.474465 C.ar      1 <1>        -0.023346 
     18 C           5.184565   -0.885958    0.873526 C.ar      1 <1>         0.108312 
     19 C           4.765135   -1.870358   -0.162268 C.ar      1 <1>         0.132936 
     20 C           3.401359   -1.967354   -0.521581 C.ar      1 <1>         0.108312 
     21 C           2.397545   -1.072351    0.108949 C.ar      1 <1>        -0.023346 
     22 O           5.698792   -2.706843   -0.782423 O.3       1 <1>        -0.355384 
     23 O           6.516410   -0.729409    1.284747 O.3       1 <1>        -0.345252 
     24 C           7.608088   -1.372769    0.609610 C.3       1 <1>         0.043137 
     25 O          -6.397828   -0.154423    0.088771 O.3       1 <1>        -0.345252 
     26 C          -6.688493   -0.459420    1.460839 C.3       1 <1>         0.043137 
     27 O           3.038698   -2.925048   -1.481488 O.3       1 <1>        -0.345252 
     28 C           1.666798   -3.290423   -1.706388 C.3       1 <1>         0.043137 
     29 O          -3.515896    1.573380   -3.491542 O.3       1 <1>        -0.345252 
     30 C          -2.284092    2.087560   -4.023265 C.3       1 <1>         0.043137 
     31 H          -4.203904    0.423638    1.734557 H         1 <1>         0.064768 
     32 H          -1.707447    1.942896   -1.484681 H         1 <1>         0.064768 
     33 H          -6.757067    0.084492   -2.176995 H         1 <1>         0.217502 
     34 H          -2.033142    1.531704    2.267587 H         1 <1>         0.064977 
     35 H           0.750833    3.639753    0.895102 H         1 <1>         0.056372 
     36 H           0.194326    2.865121    2.417186 H         1 <1>         0.056372 
     37 H           1.032976    1.500193   -0.231632 H         1 <1>         0.035574 
     38 H          -0.714184   -0.131120    0.118347 H         1 <1>         0.035574 
     39 H           2.390449    1.673683    2.181725 H         1 <1>         0.064977 
     40 H           0.195535   -1.386524    1.916175 H         1 <1>         0.056372 
     41 H          -0.939983   -0.503808    2.964095 H         1 <1>         0.056372 
     42 H           4.540112    0.623053    2.240894 H         1 <1>         0.064768 
     43 H           1.366608   -1.138922   -0.195229 H         1 <1>         0.064768 
     44 H           5.290548   -3.269726   -1.433883 H         1 <1>         0.217502 
     45 H           8.544663   -1.018664    1.066518 H         1 <1>         0.052871 
     46 H           7.563250   -2.465531    0.731088 H         1 <1>         0.052871 
     47 H           7.621070   -1.104967   -0.458291 H         1 <1>         0.052871 
     48 H          -7.710783   -0.862776    1.505463 H         1 <1>         0.052871 
     49 H          -6.645783    0.447367    2.083253 H         1 <1>         0.052871 
     50 H          -5.998666   -1.223268    1.850419 H         1 <1>         0.052871 
     51 H           1.654336   -4.124532   -2.423916 H         1 <1>         0.052871 
     52 H           1.190170   -3.628232   -0.773218 H         1 <1>         0.052871 
     53 H           1.095441   -2.457854   -2.143116 H         1 <1>         0.052871 
     54 H          -2.415678    2.216370   -5.107356 H         1 <1>         0.052871 
     55 H          -2.040545    3.068552   -3.587877 H         1 <1>         0.052871 
     56 H          -1.456741    1.380954   -3.857435 H         1 <1>         0.052871 
@<TRIPOS>BOND
     1    1    2 1    
     2    1    6 2    
     3    1   29 1    
     4    2    3 2    
     5    2    7 1    
     6    3    4 1    
     7    3   25 1    
     8    4    5 2    
     9    4   31 1    
    10    5    6 1    
    11    5    8 1    
    12    6   32 1    
    13    7   33 1    
    14    8    9 1    
    15    8   12 1    
    16    8   34 1    
    17    9   10 1    
    18   10   11 1    
    19   10   35 1    
    20   10   36 1    
    21   11   12 1    
    22   11   13 1    
    23   11   37 1    
    24   12   15 1    
    25   12   38 1    
    26   13   14 1    
    27   13   16 1    
    28   13   39 1    
    29   14   15 1    
    30   15   40 1    
    31   15   41 1    
    32   16   17 1    
    33   16   21 2    
    34   17   18 2    
    35   17   42 1    
    36   18   19 1    
    37   18   23 1    
    38   19   20 2    
    39   19   22 1    
    40   20   21 1    
    41   20   27 1    
    42   21   43 1    
    43   22   44 1    
    44   23   24 1    
    45   24   45 1    
    46   24   46 1    
    47   24   47 1    
    48   25   26 1    
    49   26   48 1    
    50   26   49 1    
    51   26   50 1    
    52   27   28 1    
    53   28   51 1    
    54   28   52 1    
    55   28   53 1    
    56   29   30 1    
    57   30   54 1    
    58   30   55 1    
    59   30   56 1    
@<TRIPOS>SUBSTRUCTURE
     1 ****        1 TEMP              0 ****  ****    0 ROOT 
@<TRIPOS>NORMAL
@<TRIPOS>FF_PBC
FORCE_FIELD_SETUP_FEATURE Force Field Setup information
v1.0  0 0.000000 0.000000 0.000000 0.000000 0.000000 0.000000 NONE 0 0 0 0 1 0 0 0 0 0 0 0 0
