@<TRIPOS>MOLECULE
MOL001689
   33    35     1     1     0
SMALL
GASTEIGER


@<TRIPOS>ATOM
      1 O           3.553804    3.376762    3.585336 O.3       1 <1>        -0.359667 
      2 O           0.641283    0.678019    0.669961 O.3       1 <1>        -0.307712 
      3 O           4.200097   -1.494126    3.295077 O.3       1 <1>        -0.358955 
      4 O           2.480551   -2.796832    1.627576 O.2       1 <1>        -0.287017 
      5 O          -4.259530    0.249594   -3.555589 O.3       1 <1>        -0.347912 
      6 C           3.180417    2.138969    3.058907 C.ar      1 <1>         0.077519 
      7 C           2.057386    2.023142    2.093535 C.ar      1 <1>        -0.000531 
      8 C           3.881064    0.989065    3.451710 C.ar      1 <1>        -0.001303 
      9 C           1.698816    0.773731    1.577550 C.ar      1 <1>         0.098804 
     10 C           3.509497   -0.343406    2.910848 C.ar      1 <1>         0.088313 
     11 C           2.439215   -0.433712    1.994608 C.ar      1 <1>         0.081945 
     12 C           1.963251   -1.721093    1.374133 C.2       1 <1>         0.193509 
     13 C           0.231836   -0.481872    0.124944 C.2       1 <1>         0.093865 
     14 C           0.835421   -1.641032    0.436064 C.2       1 <1>         0.016918 
     15 C          -0.934761   -0.376979   -0.843409 C.ar      1 <1>         0.005751 
     16 C          -1.507569    0.972321   -1.089810 C.ar      1 <1>        -0.049674 
     17 C          -1.520400   -1.477738   -1.533771 C.ar      1 <1>        -0.049674 
     18 C          -2.583722    1.156608   -1.970223 C.ar      1 <1>        -0.031056 
     19 C          -2.658575   -1.280729   -2.464492 C.ar      1 <1>        -0.031056 
     20 C          -3.186901    0.010657   -2.685567 C.ar      1 <1>         0.075851 
     21 C          -4.878739   -0.807152   -4.306927 C.3       1 <1>         0.043026 
     22 H           3.029074    4.103298    3.268426 H         1 <1>         0.217316 
     23 H           4.904732   -1.334358    3.912365 H         1 <1>         0.217342 
     24 H           1.506284    2.902516    1.780069 H         1 <1>         0.066947 
     25 H           4.698870    1.086530    4.156750 H         1 <1>         0.066923 
     26 H           0.543573   -2.602351    0.025233 H         1 <1>         0.068219 
     27 H          -1.095108    1.840069   -0.585690 H         1 <1>         0.062503 
     28 H          -1.159593   -2.488930   -1.406288 H         1 <1>         0.062503 
     29 H          -2.987090    2.149908   -2.136112 H         1 <1>         0.064346 
     30 H          -3.066598   -2.150545   -2.963884 H         1 <1>         0.064346 
     31 H          -5.679403   -0.361441   -4.915320 H         1 <1>         0.052869 
     32 H          -4.155046   -1.286450   -4.984011 H         1 <1>         0.052869 
     33 H          -5.329084   -1.556751   -3.638318 H         1 <1>         0.052869 
@<TRIPOS>BOND
     1    6    1 1    
     2    1   22 1    
     3    2    9 1    
     4   13    2 1    
     5   10    3 1    
     6    3   23 1    
     7   12    4 2    
     8   20    5 1    
     9    5   21 1    
    10    7    6 1    
    11    6    8 2    
    12    9    7 2    
    13    7   24 1    
    14   10    8 1    
    15    8   25 1    
    16    9   11 1    
    17   11   10 2    
    18   12   11 1    
    19   14   12 1    
    20   13   14 2    
    21   15   13 1    
    22   14   26 1    
    23   16   15 1    
    24   15   17 2    
    25   18   16 2    
    26   16   27 1    
    27   17   19 1    
    28   17   28 1    
    29   18   20 1    
    30   18   29 1    
    31   19   20 2    
    32   19   30 1    
    33   21   31 1    
    34   21   32 1    
    35   21   33 1    
@<TRIPOS>SUBSTRUCTURE
     1 ****        1 TEMP              0 ****  ****    0 ROOT 
@<TRIPOS>NORMAL
@<TRIPOS>FF_PBC
FORCE_FIELD_SETUP_FEATURE Force Field Setup information
v1.0  0 0.000000 0.000000 0.000000 0.000000 0.000000 0.000000 NONE 0 0 0 0 1 0 0 0 0 0 0 0 0
