@<TRIPOS>MOLECULE
MOL005928
   24    24     1     1     0
SMALL
GASTEIGER


@<TRIPOS>ATOM
      1 C           0.705482    0.430882   -0.029963 C.ar      1 <1>        -0.022259 
      2 C           1.313525   -0.840606    0.435937 C.ar      1 <1>        -0.022241 
      3 C           1.624945    1.620652   -0.234472 C.2       1 <1>        -0.048862 
      4 C          -0.691092    0.456380   -0.258378 C.ar      1 <1>        -0.051991 
      5 C           0.537924   -1.979979    0.644561 C.ar      1 <1>         0.102997 
      6 C           1.238028    2.861635   -0.563421 C.2       1 <1>         0.010298 
      7 C          -1.518131   -0.754272   -0.034803 C.ar      1 <1>        -0.028600 
      8 C          -0.926389   -1.946980    0.404970 C.ar      1 <1>         0.105438 
      9 O           1.153016   -3.154081    1.082115 O.3       1 <1>        -0.357256 
     10 C           2.177463    3.983491   -0.756640 C.2       1 <1>         0.284026 
     11 O          -1.666162   -3.118478    0.629577 O.3       1 <1>        -0.345349 
     12 O           1.703436    5.187113   -1.088815 O.3       1 <1>        -0.327929 
     13 O           3.377830    3.808456   -0.613241 O.2       1 <1>        -0.260082 
     14 C          -3.081627   -3.188390    0.390598 C.3       1 <1>         0.043135 
     15 H           2.380260   -0.898643    0.621591 H         1 <1>         0.064994 
     16 H           2.692340    1.442925   -0.099729 H         1 <1>         0.062526 
     17 H          -1.192302    1.351248   -0.602234 H         1 <1>         0.062425 
     18 H           0.196724    3.131552   -0.710372 H         1 <1>         0.067729 
     19 H          -2.582322   -0.685840   -0.221125 H         1 <1>         0.064429 
     20 H           0.516768   -3.854476    1.190013 H         1 <1>         0.217422 
     21 H           2.394884    5.832805   -1.189057 H         1 <1>         0.220537 
     22 H          -3.412042   -4.210030    0.629420 H         1 <1>         0.052871 
     23 H          -3.628470   -2.487816    1.039965 H         1 <1>         0.052871 
     24 H          -3.314090   -2.987448   -0.666397 H         1 <1>         0.052871 
@<TRIPOS>BOND
     1    1    2 1    
     2    1    3 1    
     3    1    4 2    
     4    2    5 2    
     5    2   15 1    
     6    3    6 2    
     7    3   16 1    
     8    4    7 1    
     9    4   17 1    
    10    5    8 1    
    11    5    9 1    
    12    6   10 1    
    13    6   18 1    
    14    7    8 2    
    15    7   19 1    
    16    8   11 1    
    17    9   20 1    
    18   10   12 1    
    19   10   13 2    
    20   11   14 1    
    21   12   21 1    
    22   14   22 1    
    23   14   23 1    
    24   14   24 1    
@<TRIPOS>SUBSTRUCTURE
     1 ****        1 TEMP              0 ****  ****    0 ROOT 
@<TRIPOS>NORMAL
@<TRIPOS>FF_PBC
FORCE_FIELD_SETUP_FEATURE Force Field Setup information
v1.0  0 0.000000 0.000000 0.000000 0.000000 0.000000 0.000000 NONE 0 0 0 0 1 0 0 0 0 0 0 0 0
