@<TRIPOS>MOLECULE
MOL000361
   81    85     1     1     0
SMALL
GASTEIGER


@<TRIPOS>ATOM
      1 C          -0.362922   -0.699293    0.590057 C.3       1 <1>        -0.019373 
      2 C           1.100368   -0.352931    0.034451 C.3       1 <1>        -0.005120 
      3 C          -1.432652   -0.104194   -0.394631 C.3       1 <1>        -0.025736 
      4 C          -0.589717   -2.246685    0.687804 C.3       1 <1>        -0.046268 
      5 C          -0.575283   -0.105396    2.026959 C.3       1 <1>        -0.058491 
      6 C           1.243254    1.168220    0.011599 C.2       1 <1>        -0.063400 
      7 C           2.223647   -1.097726    0.841779 C.3       1 <1>        -0.042891 
      8 C           1.323510   -0.738225   -1.479087 C.3       1 <1>        -0.055324 
      9 C          -2.955488   -0.523866   -0.225621 C.3       1 <1>        -0.024959 
     10 C          -1.197370    1.424331   -0.627327 C.3       1 <1>        -0.030614 
     11 C          -2.067481   -2.678504    0.914606 C.3       1 <1>        -0.048609 
     12 C           2.594719    1.835403    0.270706 C.3       1 <1>        -0.013482 
     13 C           0.185021    1.935575   -0.297157 C.2       1 <1>        -0.083647 
     14 C           3.621778   -0.419251    0.793538 C.3       1 <1>        -0.046278 
     15 C          -3.028439   -2.093201   -0.163800 C.3       1 <1>        -0.027836 
     16 C          -3.720798   -0.106901   -1.532124 C.3       1 <1>        -0.044720 
     17 C          -3.655484    0.179164    0.992754 C.3       1 <1>        -0.059009 
     18 C           3.561434    1.075259    1.228825 C.3       1 <1>        -0.025477 
     19 C           3.225834    2.164801   -1.117732 C.3       1 <1>        -0.040812 
     20 C          -4.468087   -2.754025   -0.178652 C.3       1 <1>        -0.005589 
     21 C          -5.129360   -0.759259   -1.722052 C.3       1 <1>        -0.025831 
     22 C           4.991987    1.713084    1.216306 C.3       1 <1>        -0.046593 
     23 C           3.038531    1.197397    2.696968 C.3       1 <1>        -0.059017 
     24 C           4.616400    2.861199   -1.063549 C.3       1 <1>        -0.034301 
     25 C          -5.582031   -1.739467   -0.602011 C.3       1 <1>         0.060637 
     26 C          -4.470762   -3.947710   -1.194734 C.3       1 <1>        -0.057190 
     27 C           5.567156    1.983403   -0.199042 C.3       1 <1>        -0.047341 
     28 C           5.200724    2.949012   -2.508795 C.3       1 <1>        -0.059793 
     29 C           4.504980    4.319846   -0.520657 C.3       1 <1>        -0.059793 
     30 O          -6.124039   -1.055715    0.545263 O.3       1 <1>        -0.391248 
     31 H          -1.161033   -0.579456   -1.343357 H         1 <1>         0.031460 
     32 H           2.396413    2.803408    0.755035 H         1 <1>         0.035123 
     33 H          -2.563046   -2.407912   -1.112648 H         1 <1>         0.031210 
     34 C          -4.901777   -3.372405    1.193002 C.3       1 <1>        -0.057190 
     35 H           0.016485   -2.666640    1.505864 H         1 <1>         0.027096 
     36 H          -0.273832   -2.758485   -0.229464 H         1 <1>         0.027096 
     37 H           0.122347   -0.498781    2.770944 H         1 <1>         0.023542 
     38 H          -0.497357    0.990226    2.040012 H         1 <1>         0.023542 
     39 H          -1.545785   -0.368036    2.448931 H         1 <1>         0.023542 
     40 H           2.322059   -2.124991    0.452761 H         1 <1>         0.027392 
     41 H           1.990586   -1.218372    1.902744 H         1 <1>         0.027392 
     42 H           2.383050   -0.788190   -1.747341 H         1 <1>         0.023829 
     43 H           0.873305   -0.012282   -2.174575 H         1 <1>         0.023829 
     44 H           0.938318   -1.728353   -1.743765 H         1 <1>         0.023829 
     45 H          -1.394615    1.680785   -1.681708 H         1 <1>         0.031042 
     46 H          -1.878710    2.042650   -0.031476 H         1 <1>         0.031042 
     47 H          -2.400768   -2.413980    1.926315 H         1 <1>         0.026846 
     48 H          -2.079559   -3.779434    0.854220 H         1 <1>         0.026846 
     49 H           0.304368    3.020043   -0.333583 H         1 <1>         0.057198 
     50 H           4.050384   -0.514425   -0.211263 H         1 <1>         0.027096 
     51 H           4.301658   -0.967047    1.468111 H         1 <1>         0.027096 
     52 H          -3.811116    0.991100   -1.567091 H         1 <1>         0.027149 
     53 H          -3.132487   -0.380215   -2.424086 H         1 <1>         0.027149 
     54 H          -3.057975    0.957041    1.477680 H         1 <1>         0.023525 
     55 H          -4.571225    0.706492    0.693413 H         1 <1>         0.023525 
     56 H          -3.928005   -0.534573    1.776797 H         1 <1>         0.023525 
     57 H           2.532753    2.798147   -1.694408 H         1 <1>         0.027630 
     58 H           3.356273    1.240551   -1.688152 H         1 <1>         0.027630 
     59 H          -5.147565   -1.312897   -2.677414 H         1 <1>         0.029037 
     60 H          -5.892467    0.030575   -1.818428 H         1 <1>         0.029037 
     61 H           4.994358    2.671474    1.755330 H         1 <1>         0.027086 
     62 H           5.686810    1.052293    1.759936 H         1 <1>         0.027086 
     63 H           1.977650    0.942657    2.771803 H         1 <1>         0.023525 
     64 H           3.610063    0.539723    3.369522 H         1 <1>         0.023525 
     65 H           3.127272    2.227039    3.075791 H         1 <1>         0.023525 
     66 H          -6.443310   -2.317249   -0.989847 H         1 <1>         0.059852 
     67 H          -5.426386   -4.494849   -1.179460 H         1 <1>         0.023587 
     68 H          -3.673696   -4.666391   -0.949970 H         1 <1>         0.023587 
     69 H          -4.307030   -3.596213   -2.224851 H         1 <1>         0.023587 
     70 H           6.542344    2.488607   -0.103240 H         1 <1>         0.027060 
     71 H           5.755166    1.023255   -0.702614 H         1 <1>         0.027060 
     72 H           6.191042    3.430478   -2.498088 H         1 <1>         0.023499 
     73 H           4.537351    3.538287   -3.161429 H         1 <1>         0.023499 
     74 H           5.316030    1.950194   -2.958623 H         1 <1>         0.023499 
     75 H           4.083805    4.382349    0.489705 H         1 <1>         0.023499 
     76 H           5.499594    4.790711   -0.495861 H         1 <1>         0.023499 
     77 H           3.860311    4.920252   -1.180396 H         1 <1>         0.023499 
     78 H          -6.862702   -0.486213    0.351490 H         1 <1>         0.209800 
     79 H          -5.943968   -3.723814    1.134525 H         1 <1>         0.023587 
     80 H          -4.851906   -2.648511    2.016132 H         1 <1>         0.023587 
     81 H          -4.289368   -4.242084    1.469303 H         1 <1>         0.023587 
@<TRIPOS>BOND
     1    1    2 1    
     2    1    3 1    
     3    1    4 1    
     4    1    5 1    
     5    2    6 1    
     6    2    7 1    
     7    2    8 1    
     8    3    9 1    
     9    3   10 1    
    10    3   31 1    
    11    4   11 1    
    12    4   35 1    
    13    4   36 1    
    14    5   37 1    
    15    5   38 1    
    16    5   39 1    
    17    6   12 1    
    18    6   13 2    
    19    7   14 1    
    20    7   40 1    
    21    7   41 1    
    22    8   42 1    
    23    8   43 1    
    24    8   44 1    
    25    9   15 1    
    26    9   16 1    
    27    9   17 1    
    28   10   13 1    
    29   10   45 1    
    30   10   46 1    
    31   11   15 1    
    32   11   47 1    
    33   11   48 1    
    34   12   18 1    
    35   12   19 1    
    36   12   32 1    
    37   13   49 1    
    38   14   18 1    
    39   14   50 1    
    40   14   51 1    
    41   15   20 1    
    42   15   33 1    
    43   16   21 1    
    44   16   52 1    
    45   16   53 1    
    46   17   54 1    
    47   17   55 1    
    48   17   56 1    
    49   18   22 1    
    50   18   23 1    
    51   19   24 1    
    52   19   57 1    
    53   19   58 1    
    54   20   25 1    
    55   20   26 1    
    56   20   34 1    
    57   21   25 1    
    58   21   59 1    
    59   21   60 1    
    60   22   27 1    
    61   22   61 1    
    62   22   62 1    
    63   23   63 1    
    64   23   64 1    
    65   23   65 1    
    66   24   27 1    
    67   24   28 1    
    68   24   29 1    
    69   25   30 1    
    70   25   66 1    
    71   26   67 1    
    72   26   68 1    
    73   26   69 1    
    74   27   70 1    
    75   27   71 1    
    76   28   72 1    
    77   28   73 1    
    78   28   74 1    
    79   29   75 1    
    80   29   76 1    
    81   29   77 1    
    82   30   78 1    
    83   34   79 1    
    84   34   80 1    
    85   34   81 1    
@<TRIPOS>SUBSTRUCTURE
     1 ****        1 TEMP              0 ****  ****    0 ROOT 
@<TRIPOS>NORMAL
@<TRIPOS>FF_PBC
FORCE_FIELD_SETUP_FEATURE Force Field Setup information
v1.0  0 0.000000 0.000000 0.000000 0.000000 0.000000 0.000000 NONE 0 0 0 0 1 0 0 0 0 0 0 0 0
