@<TRIPOS>MOLECULE
MOL000007
   51    54     1     1     0
SMALL
GASTEIGER


@<TRIPOS>ATOM
      1 C           0.658772    3.573348    0.598906 C.2       1 <1>         0.093865 
      2 C           1.078021    4.041045    1.783122 C.2       1 <1>         0.016918 
      3 C           1.555679    3.131549    2.829076 C.2       1 <1>         0.193509 
      4 O           1.941311    3.572307    3.899360 O.2       1 <1>        -0.287017 
      5 C           1.544659    1.656499    2.519684 C.ar      1 <1>         0.081945 
      6 C           2.001663    0.632861    3.489999 C.ar      1 <1>         0.088322 
      7 O           2.466942    1.027556    4.747071 O.3       1 <1>        -0.358955 
      8 C           1.956915   -0.741266    3.118105 C.ar      1 <1>        -0.000933 
      9 C           1.461834   -1.148788    1.782984 C.ar      1 <1>         0.084401 
     10 C           1.029364   -0.140796    0.866461 C.ar      1 <1>        -0.000161 
     11 C           1.075466    1.288016    1.253306 C.ar      1 <1>         0.098813 
     12 O           0.646007    2.255212    0.337710 O.3       1 <1>        -0.307712 
     13 C           0.168840    4.490631   -0.503997 C.ar      1 <1>         0.005751 
     14 C          -0.779087    3.937563   -1.503302 C.ar      1 <1>        -0.049682 
     15 C          -1.273553    4.739715   -2.549306 C.ar      1 <1>        -0.031304 
     16 C          -0.858085    6.154998   -2.674918 C.ar      1 <1>         0.072619 
     17 O          -1.371456    6.926422   -3.720604 O.3       1 <1>        -0.359832 
     18 C           0.053602    6.697814   -1.729072 C.ar      1 <1>        -0.031304 
     19 C           0.581323    5.852779   -0.631005 C.ar      1 <1>        -0.049682 
     20 O           1.436812   -2.512989    1.468296 O.3       1 <1>        -0.312385 
     21 C           0.816282   -2.997022    0.267114 C.3       1 <1>         0.193645 
     22 C           0.873704   -4.545076    0.267611 C.3       1 <1>         0.134509 
     23 O           2.242349   -4.987689    0.166092 O.3       1 <1>        -0.384091 
     24 C           0.053484   -5.102210   -0.922383 C.3       1 <1>         0.114074 
     25 O           0.019651   -6.539130   -0.826775 O.3       1 <1>        -0.386401 
     26 C          -1.382508   -4.522187   -0.907409 C.3       1 <1>         0.111896 
     27 O          -2.046365   -4.971297   -2.104387 O.3       1 <1>        -0.386488 
     28 C          -1.320598   -2.972607   -0.844008 C.3       1 <1>         0.113017 
     29 O          -0.550218   -2.541907    0.294623 O.3       1 <1>        -0.340168 
     30 C          -2.742666   -2.375839   -0.694790 C.3       1 <1>         0.073015 
     31 O          -3.584935   -2.864791   -1.757694 O.3       1 <1>        -0.392366 
     32 H           1.078436    5.099753    2.031865 H         1 <1>         0.068219 
     33 H           2.738633    0.313311    5.312237 H         1 <1>         0.217342 
     34 H           2.284776   -1.511182    3.807287 H         1 <1>         0.066933 
     35 H           0.661436   -0.383342   -0.121722 H         1 <1>         0.066957 
     36 H          -1.097726    2.902748   -1.429130 H         1 <1>         0.062503 
     37 H          -1.966122    4.325406   -3.274151 H         1 <1>         0.064339 
     38 H          -1.052647    7.821615   -3.738842 H         1 <1>         0.217313 
     39 H           0.371463    7.732434   -1.801292 H         1 <1>         0.064339 
     40 H           1.288349    6.292600    0.061839 H         1 <1>         0.062503 
     41 H           1.371410   -2.626017   -0.610596 H         1 <1>         0.094160 
     42 H           0.425687   -4.895474    1.213246 H         1 <1>         0.067108 
     43 H           2.306437   -5.938762    0.161233 H         1 <1>         0.210111 
     44 H           0.554537   -4.803474   -1.859771 H         1 <1>         0.064758 
     45 H          -0.486778   -6.927880   -1.535007 H         1 <1>         0.210005 
     46 H          -1.901607   -4.905887   -0.012321 H         1 <1>         0.064673 
     47 H          -2.924705   -4.604889   -2.184583 H         1 <1>         0.210004 
     48 H          -0.885075   -2.590539   -1.783072 H         1 <1>         0.064668 
     49 H          -3.153246   -2.672421    0.285215 H         1 <1>         0.058370 
     50 H          -2.669608   -1.274940   -0.723568 H         1 <1>         0.058370 
     51 H          -4.469843   -2.510652   -1.719850 H         1 <1>         0.209508 
@<TRIPOS>BOND
     1    1    2 2    
     2    1   12 1    
     3    1   13 1    
     4    2    3 1    
     5    2   32 1    
     6    3    4 2    
     7    3    5 1    
     8    5    6 1    
     9    5   11 2    
    10    6    7 1    
    11    6    8 2    
    12    7   33 1    
    13    8    9 1    
    14    8   34 1    
    15    9   10 2    
    16    9   20 1    
    17   10   11 1    
    18   10   35 1    
    19   11   12 1    
    20   13   14 1    
    21   13   19 2    
    22   14   15 2    
    23   14   36 1    
    24   15   16 1    
    25   15   37 1    
    26   16   17 1    
    27   16   18 2    
    28   17   38 1    
    29   18   19 1    
    30   18   39 1    
    31   19   40 1    
    32   20   21 1    
    33   21   22 1    
    34   21   29 1    
    35   21   41 1    
    36   22   23 1    
    37   22   24 1    
    38   22   42 1    
    39   23   43 1    
    40   24   25 1    
    41   24   26 1    
    42   24   44 1    
    43   25   45 1    
    44   26   27 1    
    45   26   28 1    
    46   26   46 1    
    47   27   47 1    
    48   28   29 1    
    49   28   30 1    
    50   28   48 1    
    51   30   31 1    
    52   30   49 1    
    53   30   50 1    
    54   31   51 1    
@<TRIPOS>SUBSTRUCTURE
     1 ****        1 TEMP              0 ****  ****    0 ROOT 
@<TRIPOS>NORMAL
@<TRIPOS>FF_PBC
FORCE_FIELD_SETUP_FEATURE Force Field Setup information
v1.0  0 0.000000 0.000000 0.000000 0.000000 0.000000 0.000000 NONE 0 0 0 0 1 0 0 0 0 0 0 0 0
