@<TRIPOS>MOLECULE
MOL001450
   98    97     1     1     0
SMALL
GASTEIGER


@<TRIPOS>ATOM
      1 C          19.839025    0.447998   -0.000042 C.2       1 <1>         0.259588 
      2 C          18.588035   -0.392359    0.000133 C.3       1 <1>         0.033006 
      3 C          17.295264    0.467774   -0.000075 C.3       1 <1>        -0.044061 
      4 C          16.020310   -0.419603    0.000115 C.3       1 <1>        -0.052596 
      5 C          14.730797    0.446545   -0.000088 C.3       1 <1>        -0.053045 
      6 C          13.452762   -0.436530    0.000097 C.3       1 <1>        -0.053057 
      7 C          12.165716    0.433335   -0.000108 C.3       1 <1>        -0.053057 
      8 C          10.885271   -0.446179    0.000093 C.3       1 <1>        -0.053057 
      9 C           9.600872    0.427488   -0.000115 C.3       1 <1>        -0.053057 
     10 C           8.318045   -0.448361    0.000102 C.3       1 <1>        -0.053057 
     11 C           7.035650    0.428234   -0.000113 C.3       1 <1>        -0.053057 
     12 C           5.751486   -0.445589    0.000108 C.3       1 <1>        -0.053057 
     13 C           4.469984    0.432320   -0.000105 C.3       1 <1>        -0.053057 
     14 C           3.185458   -0.440991    0.000110 C.3       1 <1>        -0.053057 
     15 C           1.903947    0.436873   -0.000105 C.3       1 <1>        -0.053057 
     16 C           0.619959   -0.437101    0.000107 C.3       1 <1>        -0.053057 
     17 C          -0.661949    0.439975   -0.000107 C.3       1 <1>        -0.053057 
     18 C          -1.945102   -0.435394    0.000108 C.3       1 <1>        -0.053057 
     19 C          -3.227919    0.440231   -0.000105 C.3       1 <1>        -0.053057 
     20 C          -4.510585   -0.436060    0.000106 C.3       1 <1>        -0.053057 
     21 C          -5.793400    0.439673   -0.000108 C.3       1 <1>        -0.053057 
     22 C          -7.076944   -0.435198    0.000106 C.3       1 <1>        -0.053057 
     23 C          -8.358992    0.441873   -0.000108 C.3       1 <1>        -0.053057 
     24 C          -9.642956   -0.432215    0.000103 C.3       1 <1>        -0.053057 
     25 C         -10.925187    0.444618   -0.000108 C.3       1 <1>        -0.053057 
     26 C         -12.208031   -0.431268    0.000106 C.3       1 <1>        -0.053057 
     27 C         -13.491816    0.443184   -0.000104 C.3       1 <1>        -0.053057 
     28 C         -14.773101   -0.435107    0.000109 C.3       1 <1>        -0.053057 
     29 C         -16.058266    0.437261   -0.000107 C.3       1 <1>        -0.053065 
     30 C         -17.338391   -0.442481    0.000107 C.3       1 <1>        -0.053306 
     31 C         -18.623916    0.428833   -0.000113 C.3       1 <1>        -0.055911 
     32 C         -19.900993   -0.451164    0.000114 C.3       1 <1>        -0.065276 
     33 O          19.807982    1.668957   -0.000316 O.2       1 <1>        -0.265177 
     34 O          20.984451   -0.236867    0.000126 O.3       1 <1>        -0.331267 
     35 H          18.607634   -1.035293    0.893948 H         1 <1>         0.036600 
     36 H          18.607657   -1.035699   -0.893390 H         1 <1>         0.036600 
     37 H          17.292313    1.113450   -0.893963 H         1 <1>         0.027004 
     38 H          17.292300    1.113878    0.893508 H         1 <1>         0.027004 
     39 H          16.025310   -1.065329    0.893700 H         1 <1>         0.026540 
     40 H          16.025325   -1.065758   -0.893157 H         1 <1>         0.026540 
     41 H          14.726336    1.092514   -0.893515 H         1 <1>         0.026529 
     42 H          14.726324    1.092950    0.893034 H         1 <1>         0.026529 
     43 H          13.455849   -1.082334    0.893616 H         1 <1>         0.026528 
     44 H          13.455864   -1.082772   -0.893091 H         1 <1>         0.026528 
     45 H          12.163172    1.079273   -0.893555 H         1 <1>         0.026528 
     46 H          12.163165    1.079726    0.893030 H         1 <1>         0.026528 
     47 H          10.886722   -1.092024    0.893641 H         1 <1>         0.026528 
     48 H          10.886729   -1.092479   -0.893126 H         1 <1>         0.026528 
     49 H           9.600147    1.073409   -0.893603 H         1 <1>         0.026528 
     50 H           9.600149    1.073879    0.893039 H         1 <1>         0.026528 
     51 H           8.317791   -1.094222    0.893608 H         1 <1>         0.026528 
     52 H           8.317788   -1.094696   -0.893076 H         1 <1>         0.026528 
     53 H           7.036132    1.074176   -0.893564 H         1 <1>         0.026528 
     54 H           7.036138    1.074652    0.893008 H         1 <1>         0.026528 
     55 H           5.750507   -1.091473    0.893585 H         1 <1>         0.026528 
     56 H           5.750503   -1.091950   -0.893031 H         1 <1>         0.026528 
     57 H           4.471090    1.078221   -0.893577 H         1 <1>         0.026528 
     58 H           4.471092    1.078697    0.893030 H         1 <1>         0.026528 
     59 H           3.184413   -1.086847    0.893614 H         1 <1>         0.026528 
     60 H           3.184412   -1.087324   -0.893057 H         1 <1>         0.026528 
     61 H           1.904867    1.082716   -0.893627 H         1 <1>         0.026528 
     62 H           1.904867    1.083192    0.893078 H         1 <1>         0.026528 
     63 H           0.619125   -1.082982    0.893625 H         1 <1>         0.026528 
     64 H           0.619126   -1.083457   -0.893072 H         1 <1>         0.026528 
     65 H          -0.661608    1.085831   -0.893631 H         1 <1>         0.026528 
     66 H          -0.661608    1.086307    0.893078 H         1 <1>         0.026528 
     67 H          -1.945295   -1.081225    0.893637 H         1 <1>         0.026528 
     68 H          -1.945295   -1.081702   -0.893087 H         1 <1>         0.026528 
     69 H          -3.228128    1.086097   -0.893623 H         1 <1>         0.026528 
     70 H          -3.228127    1.086573    0.893065 H         1 <1>         0.026528 
     71 H          -4.510451   -1.081946    0.893603 H         1 <1>         0.026528 
     72 H          -4.510451   -1.082422   -0.893050 H         1 <1>         0.026528 
     73 H          -5.793150    1.085516   -0.893609 H         1 <1>         0.026528 
     74 H          -5.793150    1.085993    0.893055 H         1 <1>         0.026528 
     75 H          -7.077387   -1.081089    0.893571 H         1 <1>         0.026528 
     76 H          -7.077387   -1.081565   -0.893018 H         1 <1>         0.026528 
     77 H          -8.358341    1.087725   -0.893587 H         1 <1>         0.026528 
     78 H          -8.358340    1.088202    0.893032 H         1 <1>         0.026528 
     79 H          -9.643564   -1.078060    0.893586 H         1 <1>         0.026528 
     80 H          -9.643564   -1.078535   -0.893030 H         1 <1>         0.026528 
     81 H         -10.925046    1.090460   -0.893602 H         1 <1>         0.026528 
     82 H         -10.925047    1.090936    0.893047 H         1 <1>         0.026528 
     83 H         -12.207614   -1.077115    0.893600 H         1 <1>         0.026528 
     84 H         -12.207613   -1.077591   -0.893049 H         1 <1>         0.026528 
     85 H         -13.492781    1.088995   -0.893636 H         1 <1>         0.026528 
     86 H         -13.492782    1.089467    0.893075 H         1 <1>         0.026528 
     87 H         -14.771633   -1.080953    0.893606 H         1 <1>         0.026528 
     88 H         -14.771632   -1.081430   -0.893062 H         1 <1>         0.026528 
     89 H         -16.060247    1.083091   -0.893643 H         1 <1>         0.026528 
     90 H         -16.060249    1.083561    0.893083 H         1 <1>         0.026528 
     91 H         -17.337208   -1.088336    0.893629 H         1 <1>         0.026520 
     92 H         -17.337208   -1.088806   -0.893075 H         1 <1>         0.026520 
     93 H         -18.631894    1.075064   -0.893769 H         1 <1>         0.026265 
     94 H         -18.631897    1.075531    0.893208 H         1 <1>         0.026265 
     95 H         -20.799999    0.185342   -0.000058 H         1 <1>         0.022978 
     96 H         -19.925974   -1.092020    0.895283 H         1 <1>         0.022978 
     97 H         -19.925978   -1.092478   -0.894720 H         1 <1>         0.022978 
     98 H          21.740241    0.340485    0.000001 H         1 <1>         0.220208 
@<TRIPOS>BOND
     1    1    2 1    
     2    1   33 2    
     3    1   34 1    
     4    2    3 1    
     5    2   35 1    
     6    2   36 1    
     7    3    4 1    
     8    3   37 1    
     9    3   38 1    
    10    4    5 1    
    11    4   39 1    
    12    4   40 1    
    13    5    6 1    
    14    5   41 1    
    15    5   42 1    
    16    6    7 1    
    17    6   43 1    
    18    6   44 1    
    19    7    8 1    
    20    7   45 1    
    21    7   46 1    
    22    8    9 1    
    23    8   47 1    
    24    8   48 1    
    25    9   10 1    
    26    9   49 1    
    27    9   50 1    
    28   10   11 1    
    29   10   51 1    
    30   10   52 1    
    31   11   12 1    
    32   11   53 1    
    33   11   54 1    
    34   12   13 1    
    35   12   55 1    
    36   12   56 1    
    37   13   14 1    
    38   13   57 1    
    39   13   58 1    
    40   14   15 1    
    41   14   59 1    
    42   14   60 1    
    43   15   16 1    
    44   15   61 1    
    45   15   62 1    
    46   16   17 1    
    47   16   63 1    
    48   16   64 1    
    49   17   18 1    
    50   17   65 1    
    51   17   66 1    
    52   18   19 1    
    53   18   67 1    
    54   18   68 1    
    55   19   20 1    
    56   19   69 1    
    57   19   70 1    
    58   20   21 1    
    59   20   71 1    
    60   20   72 1    
    61   21   22 1    
    62   21   73 1    
    63   21   74 1    
    64   22   23 1    
    65   22   75 1    
    66   22   76 1    
    67   23   24 1    
    68   23   77 1    
    69   23   78 1    
    70   24   25 1    
    71   24   79 1    
    72   24   80 1    
    73   25   26 1    
    74   25   81 1    
    75   25   82 1    
    76   26   27 1    
    77   26   83 1    
    78   26   84 1    
    79   27   28 1    
    80   27   85 1    
    81   27   86 1    
    82   28   29 1    
    83   28   87 1    
    84   28   88 1    
    85   29   30 1    
    86   29   89 1    
    87   29   90 1    
    88   30   31 1    
    89   30   91 1    
    90   30   92 1    
    91   31   32 1    
    92   31   93 1    
    93   31   94 1    
    94   32   95 1    
    95   32   96 1    
    96   32   97 1    
    97   34   98 1    
@<TRIPOS>SUBSTRUCTURE
     1 ****        1 TEMP              0 ****  ****    0 ROOT 
@<TRIPOS>NORMAL
@<TRIPOS>FF_PBC
FORCE_FIELD_SETUP_FEATURE Force Field Setup information
v1.0  0 0.000000 0.000000 0.000000 0.000000 0.000000 0.000000 NONE 0 0 0 0 1 0 0 0 0 0 0 0 0
