@<TRIPOS>MOLECULE
MOL012229
   57    56     1     1     0
SMALL
GASTEIGER


@<TRIPOS>ATOM
      1 C          -9.135429    0.553238    0.194493 C.3       1 <1>        -0.040979 
      2 C          -8.524054   -0.806575   -0.209689 C.3       1 <1>         0.054328 
      3 O          -8.911383   -1.788832    0.773341 O.3       1 <1>        -0.313464 
      4 C          -8.386547   -3.007626    0.560143 C.2       1 <1>         0.293560 
      5 C          -8.731853   -4.041715    1.614328 C.3       1 <1>         0.165897 
      6 C          -7.910503   -5.369170    1.489295 C.3       1 <1>         0.093180 
      7 O          -7.688528   -3.243906   -0.414689 O.2       1 <1>        -0.261989 
      8 O          -8.510852   -3.422737    2.907427 O.3       1 <1>        -0.379228 
      9 C          -8.562174   -6.428096    0.530696 C.3       1 <1>        -0.011437 
     10 O          -6.561431   -5.006142    1.124311 O.3       1 <1>        -0.388433 
     11 C          -8.637957   -5.932983   -0.940876 C.3       1 <1>        -0.059691 
     12 C          -7.858985   -7.827579    0.613064 C.3       1 <1>        -0.029732 
     13 C          -8.618587   -8.850397    1.435629 C.2       1 <1>        -0.087587 
     14 C          -8.782983  -10.127214    1.059934 C.2       1 <1>        -0.087588 
     15 C          -9.520389  -11.149384    1.899612 C.3       1 <1>        -0.029818 
     16 C          -8.632436  -12.313998    2.436764 C.3       1 <1>        -0.013895 
     17 C          -7.468796  -11.820397    3.366412 C.3       1 <1>         0.067050 
     18 C          -9.541933  -13.354022    3.160377 C.3       1 <1>        -0.059777 
     19 C          -6.080990  -11.996054    2.682046 C.3       1 <1>         0.059414 
     20 O          -7.692247  -10.445584    3.729092 O.3       1 <1>        -0.391013 
     21 C          -5.711847  -13.452310    2.531985 C.2       1 <1>         0.264635 
     22 O          -4.497183  -13.681157    2.014377 O.3       1 <1>        -0.315407 
     23 C          -4.128843  -15.077451    1.986012 C.3       1 <1>         0.054244 
     24 O          -6.465728  -14.355120    2.870956 O.2       1 <1>        -0.264881 
     25 C          -2.723236  -15.175133    1.347900 C.3       1 <1>        -0.040980 
     26 H          -8.892031    1.316265   -0.560198 H         1 <1>         0.025189 
     27 H         -10.229713    0.464746    0.275689 H         1 <1>         0.025189 
     28 H          -8.725696    0.864854    1.167513 H         1 <1>         0.025189 
     29 H          -7.424441   -0.703893   -0.250160 H         1 <1>         0.056304 
     30 H          -8.901910   -1.092459   -1.206549 H         1 <1>         0.056304 
     31 H          -9.812616   -4.240317    1.503743 H         1 <1>         0.072478 
     32 H          -7.885661   -5.835075    2.490064 H         1 <1>         0.062699 
     33 H          -8.812162   -3.941890    3.644093 H         1 <1>         0.210573 
     34 H          -9.608589   -6.572870    0.858487 H         1 <1>         0.032688 
     35 H          -5.916128   -5.701695    1.130626 H         1 <1>         0.209917 
     36 H          -9.080752   -6.704245   -1.589922 H         1 <1>         0.023331 
     37 H          -9.278288   -5.043840   -1.029374 H         1 <1>         0.023331 
     38 H          -7.628430   -5.697072   -1.310594 H         1 <1>         0.023331 
     39 H          -7.680174   -8.231905   -0.395316 H         1 <1>         0.031072 
     40 H          -6.873170   -7.741267    1.087092 H         1 <1>         0.031072 
     41 H          -9.034740   -8.519483    2.390264 H         1 <1>         0.056905 
     42 H          -8.379319  -10.476922    0.106871 H         1 <1>         0.056905 
     43 H         -10.304191  -11.579051    1.257015 H         1 <1>         0.031071 
     44 H         -10.026381  -10.677851    2.756320 H         1 <1>         0.031071 
     45 H          -8.215183  -12.836212    1.557295 H         1 <1>         0.032602 
     46 H          -7.458133  -12.406609    4.304171 H         1 <1>         0.060081 
     47 H          -8.970053  -14.236889    3.489914 H         1 <1>         0.023330 
     48 H         -10.336185  -13.704530    2.480830 H         1 <1>         0.023330 
     49 H         -10.014722  -12.896838    4.043562 H         1 <1>         0.023330 
     50 H          -6.091557  -11.516171    1.692784 H         1 <1>         0.039158 
     51 H          -5.296282  -11.509898    3.282816 H         1 <1>         0.039158 
     52 H          -7.034216  -10.089256    4.317342 H         1 <1>         0.209804 
     53 H          -4.839803  -15.676084    1.386709 H         1 <1>         0.056303 
     54 H          -4.090710  -15.488421    3.011986 H         1 <1>         0.056303 
     55 H          -2.396276  -16.226469    1.321507 H         1 <1>         0.025189 
     56 H          -1.997346  -14.587889    1.934417 H         1 <1>         0.025189 
     57 H          -2.749848  -14.780713    0.318461 H         1 <1>         0.025189 
@<TRIPOS>BOND
     1    1    2 1    
     2    1   26 1    
     3    1   27 1    
     4    1   28 1    
     5    2    3 1    
     6    2   29 1    
     7    2   30 1    
     8    3    4 1    
     9    4    5 1    
    10    4    7 2    
    11    5    6 1    
    12    5    8 1    
    13    5   31 1    
    14    6    9 1    
    15    6   10 1    
    16    6   32 1    
    17    8   33 1    
    18    9   11 1    
    19    9   12 1    
    20    9   34 1    
    21   10   35 1    
    22   11   36 1    
    23   11   37 1    
    24   11   38 1    
    25   12   13 1    
    26   12   39 1    
    27   12   40 1    
    28   13   14 2    
    29   13   41 1    
    30   14   15 1    
    31   14   42 1    
    32   15   16 1    
    33   15   43 1    
    34   15   44 1    
    35   16   17 1    
    36   16   18 1    
    37   16   45 1    
    38   17   19 1    
    39   17   20 1    
    40   17   46 1    
    41   18   47 1    
    42   18   48 1    
    43   18   49 1    
    44   19   21 1    
    45   19   50 1    
    46   19   51 1    
    47   20   52 1    
    48   21   22 1    
    49   21   24 2    
    50   22   23 1    
    51   23   25 1    
    52   23   53 1    
    53   23   54 1    
    54   25   55 1    
    55   25   56 1    
    56   25   57 1    
@<TRIPOS>SUBSTRUCTURE
     1 ****        1 TEMP              0 ****  ****    0 ROOT 
@<TRIPOS>NORMAL
@<TRIPOS>FF_PBC
FORCE_FIELD_SETUP_FEATURE Force Field Setup information
v1.0  0 0.000000 0.000000 0.000000 0.000000 0.000000 0.000000 NONE 0 0 0 0 1 0 0 0 0 0 0 0 0
