@<TRIPOS>MOLECULE
MOL012214
   33    33     1     1     0
SMALL
GASTEIGER


@<TRIPOS>ATOM
      1 C           1.577742   -1.294705   -0.855394 C.3       1 <1>         0.139357 
      2 C           2.827456   -0.706933   -0.135858 C.3       1 <1>         0.222592 
      3 O           2.686192    0.724079   -0.029513 O.3       1 <1>        -0.341930 
      4 C           1.528910    1.126301    0.732042 C.3       1 <1>         0.079527 
      5 C           0.215263    0.579441    0.120247 C.3       1 <1>         0.106955 
      6 C           0.304048   -0.960896   -0.030991 C.3       1 <1>         0.114087 
      7 O           5.133490   -0.045116   -0.949786 O.3       1 <1>        -0.389613 
      8 C           4.102209   -1.053763   -0.970734 C.3       1 <1>         0.100808 
      9 O           1.773227   -2.714301   -1.039252 O.3       1 <1>        -0.383707 
     10 O          -0.911604   -1.384065   -0.682931 O.3       1 <1>        -0.386400 
     11 O           0.002104    1.196228   -1.164183 O.3       1 <1>        -0.386858 
     12 O           2.848265   -1.287091    1.190577 O.3       1 <1>        -0.344603 
     13 C           3.947945   -0.888599    2.031609 C.3       1 <1>         0.050844 
     14 C           3.658154   -1.408856    3.462808 C.3       1 <1>        -0.032195 
     15 C           3.534588   -2.954928    3.492670 C.3       1 <1>        -0.063194 
     16 H           1.480700   -0.805117   -1.839826 H         1 <1>         0.067495 
     17 H           1.493451    2.226463    0.718487 H         1 <1>         0.058745 
     18 H           1.615314    0.806096    1.782606 H         1 <1>         0.058745 
     19 H          -0.630686    0.833458    0.784695 H         1 <1>         0.064300 
     20 H           0.372081   -1.425687    0.968435 H         1 <1>         0.064759 
     21 H           5.440842    0.178410   -0.079935 H         1 <1>         0.209629 
     22 H           3.850286   -1.124717   -2.039450 H         1 <1>         0.061163 
     23 H           4.487484   -2.037996   -0.660368 H         1 <1>         0.061163 
     24 H           1.089248   -3.131669   -1.551784 H         1 <1>         0.210126 
     25 H          -0.999566   -2.329100   -0.749797 H         1 <1>         0.210005 
     26 H          -0.784518    0.864403   -1.588515 H         1 <1>         0.209989 
     27 H           4.893706   -1.334410    1.687642 H         1 <1>         0.056068 
     28 H           4.057128    0.207948    2.070078 H         1 <1>         0.056068 
     29 H           4.468570   -1.094566    4.142316 H         1 <1>         0.028467 
     30 H           2.715008   -0.962717    3.820258 H         1 <1>         0.028467 
     31 H           3.327906   -3.297970    4.518792 H         1 <1>         0.023048 
     32 H           2.712892   -3.289787    2.840406 H         1 <1>         0.023048 
     33 H           4.470647   -3.421870    3.148852 H         1 <1>         0.023048 
@<TRIPOS>BOND
     1    1    2 1    
     2    1    6 1    
     3    1    9 1    
     4    1   16 1    
     5    2    3 1    
     6    2    8 1    
     7    2   12 1    
     8    3    4 1    
     9    4    5 1    
    10    4   17 1    
    11    4   18 1    
    12    5    6 1    
    13    5   11 1    
    14    5   19 1    
    15    6   10 1    
    16    6   20 1    
    17    8    7 1    
    18    7   21 1    
    19    8   22 1    
    20    8   23 1    
    21    9   24 1    
    22   10   25 1    
    23   11   26 1    
    24   12   13 1    
    25   13   14 1    
    26   13   27 1    
    27   13   28 1    
    28   14   15 1    
    29   14   29 1    
    30   14   30 1    
    31   15   31 1    
    32   15   32 1    
    33   15   33 1    
@<TRIPOS>SUBSTRUCTURE
     1 ****        1 TEMP              0 ****  ****    0 ROOT 
@<TRIPOS>NORMAL
@<TRIPOS>FF_PBC
FORCE_FIELD_SETUP_FEATURE Force Field Setup information
v1.0  0 0.000000 0.000000 0.000000 0.000000 0.000000 0.000000 NONE 0 0 0 0 1 0 0 0 0 0 0 0 0
