@<TRIPOS>MOLECULE
MOL012219
   38    39     1     1     0
SMALL
GASTEIGER


@<TRIPOS>ATOM
      1 O          -6.689825   -0.577457   -0.512757 O.3       1 <1>        -0.340168 
      2 O          -8.745091    0.299835   -0.831866 O.3       1 <1>        -0.312205 
      3 O          -8.019682   -4.437390    0.404815 O.3       1 <1>        -0.386401 
      4 O          -5.255562   -3.714281    0.838775 O.3       1 <1>        -0.386488 
      5 O          -9.899229   -2.311873    0.362236 O.3       1 <1>        -0.384091 
      6 O          -3.340211   -1.865760    0.429354 O.3       1 <1>        -0.392366 
      7 O         -11.053865    1.443839   -4.225024 O.3       1 <1>        -0.390332 
      8 C          -7.624760   -3.066836    0.604542 C.3       1 <1>         0.114074 
      9 C          -6.175059   -2.897221    0.088128 C.3       1 <1>         0.111896 
     10 C          -8.571337   -2.104748   -0.160537 C.3       1 <1>         0.134509 
     11 C          -5.758982   -1.409625    0.212673 C.3       1 <1>         0.113017 
     12 C          -8.041425   -0.649916   -0.011762 C.3       1 <1>         0.193655 
     13 C          -4.335528   -1.192388   -0.362083 C.3       1 <1>         0.073015 
     14 C         -10.068842    0.713264   -0.626034 C.ar      1 <1>         0.084804 
     15 C         -10.811507    1.307678   -1.766439 C.ar      1 <1>         0.007882 
     16 C         -10.712596    0.597795    0.635453 C.ar      1 <1>        -0.031226 
     17 C         -12.138371    1.754993   -1.590563 C.ar      1 <1>        -0.053932 
     18 C         -10.120223    1.434437   -3.130231 C.3       1 <1>         0.071635 
     19 C         -12.110323    1.060566    0.804306 C.ar      1 <1>        -0.059300 
     20 C         -12.803342    1.623037   -0.274305 C.ar      1 <1>        -0.061272 
     21 H          -7.647064   -2.830471    1.682448 H         1 <1>         0.064758 
     22 H          -6.148266   -3.185005   -0.977164 H         1 <1>         0.064673 
     23 H          -8.542727   -2.375093   -1.230428 H         1 <1>         0.067108 
     24 H          -5.724723   -1.122489    1.277940 H         1 <1>         0.064668 
     25 H          -8.037226   -0.323080    1.038471 H         1 <1>         0.094160 
     26 H          -4.293436   -1.528407   -1.410648 H         1 <1>         0.058370 
     27 H          -4.104653   -0.115492   -0.341224 H         1 <1>         0.058370 
     28 H          -8.914703   -4.592418    0.694592 H         1 <1>         0.210005 
     29 H          -5.502396   -4.635257    0.810169 H         1 <1>         0.210004 
     30 H         -10.575053   -1.887436   -0.155965 H         1 <1>         0.210111 
     31 H          -3.509102   -2.802495    0.502141 H         1 <1>         0.209508 
     32 H         -10.211577    0.175564    1.496512 H         1 <1>         0.064339 
     33 H         -12.681497    2.200525   -2.416795 H         1 <1>         0.062181 
     34 H          -9.392059    0.616829   -3.268080 H         1 <1>         0.060792 
     35 H          -9.574336    2.390659   -3.135277 H         1 <1>         0.060792 
     36 H         -12.597265    0.964153    1.768935 H         1 <1>         0.061837 
     37 H         -13.826118    1.962785   -0.148902 H         1 <1>         0.061769 
     38 H         -11.558334    0.638399   -4.283617 H         1 <1>         0.209848 
@<TRIPOS>BOND
     1    1   11 1    
     2   12    1 1    
     3    2   12 1    
     4   14    2 1    
     5    8    3 1    
     6    3   28 1    
     7    9    4 1    
     8    4   29 1    
     9   10    5 1    
    10    5   30 1    
    11   13    6 1    
    12    6   31 1    
    13   18    7 1    
    14    7   38 1    
    15    8    9 1    
    16   10    8 1    
    17    8   21 1    
    18   11    9 1    
    19    9   22 1    
    20   12   10 1    
    21   10   23 1    
    22   11   13 1    
    23   11   24 1    
    24   12   25 1    
    25   13   26 1    
    26   13   27 1    
    27   15   14 1    
    28   14   16 2    
    29   15   17 2    
    30   15   18 1    
    31   16   19 1    
    32   16   32 1    
    33   17   20 1    
    34   17   33 1    
    35   18   34 1    
    36   18   35 1    
    37   19   20 2    
    38   19   36 1    
    39   20   37 1    
@<TRIPOS>SUBSTRUCTURE
     1 ****        3 TEMP              0 ****  ****    0 ROOT 
@<TRIPOS>NORMAL
@<TRIPOS>FF_PBC
FORCE_FIELD_SETUP_FEATURE Force Field Setup information
v1.0  0 0.000000 0.000000 0.000000 0.000000 0.000000 0.000000 NONE 0 0 0 0 1 0 0 0 0 0 0 0 0
