@<TRIPOS>MOLECULE
MOL011375
   36    36     1     1     0
SMALL
GASTEIGER


@<TRIPOS>ATOM
      1 C           1.677480   -1.405223   -0.753135 C.3       1 <1>         0.079527 
      2 C           1.106755   -2.834019   -0.598773 C.3       1 <1>         0.106955 
      3 C          -0.346602   -2.720896   -0.068932 C.3       1 <1>         0.114087 
      4 C          -1.164896   -1.866611   -1.078060 C.3       1 <1>         0.139357 
      5 C          -0.483913   -0.479554   -1.264843 C.3       1 <1>         0.222592 
      6 O           0.888893   -0.636656   -1.683010 O.3       1 <1>        -0.341930 
      7 O           1.959788   -3.578262    0.293827 O.3       1 <1>        -0.386858 
      8 O          -0.322767   -2.152550    1.256231 O.3       1 <1>        -0.386400 
      9 O          -1.268130   -2.559791   -2.343103 O.3       1 <1>        -0.383707 
     10 C          -1.230400    0.299998   -2.384606 C.3       1 <1>         0.100808 
     11 O          -2.589893    0.581046   -1.990792 O.3       1 <1>        -0.389613 
     12 O          -0.536377    0.187444    0.017512 O.3       1 <1>        -0.344594 
     13 C           0.029073    1.511837    0.050251 C.3       1 <1>         0.051085 
     14 C           0.123589    1.929432    1.539065 C.3       1 <1>        -0.029598 
     15 C           0.720950    3.353657    1.702366 C.3       1 <1>        -0.053831 
     16 C           0.803760    3.760259    3.196703 C.3       1 <1>        -0.065205 
     17 H           2.699640   -1.471377   -1.156436 H         1 <1>         0.058745 
     18 H           1.737151   -0.916464    0.232384 H         1 <1>         0.058745 
     19 H           1.106378   -3.313076   -1.594240 H         1 <1>         0.064300 
     20 H          -0.782823   -3.732546   -0.004731 H         1 <1>         0.064759 
     21 H          -2.177197   -1.687010   -0.676798 H         1 <1>         0.067495 
     22 H           1.657640   -4.468388    0.442812 H         1 <1>         0.209989 
     23 H          -1.187573   -2.013272    1.628241 H         1 <1>         0.210005 
     24 H          -1.739308   -3.385793   -2.290998 H         1 <1>         0.210126 
     25 H          -1.216488   -0.301732   -3.307920 H         1 <1>         0.061163 
     26 H          -0.685627    1.231566   -2.602828 H         1 <1>         0.061163 
     27 H          -3.080734    1.057120   -2.654104 H         1 <1>         0.209629 
     28 H           1.036065    1.538311   -0.397038 H         1 <1>         0.056076 
     29 H          -0.622254    2.228266   -0.474126 H         1 <1>         0.056076 
     30 H          -0.885538    1.895831    1.981785 H         1 <1>         0.028724 
     31 H           0.755179    1.197977    2.069872 H         1 <1>         0.028724 
     32 H           1.732759    3.382045    1.264476 H         1 <1>         0.026335 
     33 H           0.091409    4.082532    1.165102 H         1 <1>         0.026335 
     34 H           1.231190    4.771071    3.291941 H         1 <1>         0.022978 
     35 H          -0.199461    3.760326    3.650961 H         1 <1>         0.022978 
     36 H           1.443038    3.056085    3.751794 H         1 <1>         0.022978 
@<TRIPOS>BOND
     1    1    2 1    
     2    1    6 1    
     3    1   17 1    
     4    1   18 1    
     5    2    3 1    
     6    2    7 1    
     7    2   19 1    
     8    3    4 1    
     9    3    8 1    
    10    3   20 1    
    11    4    5 1    
    12    4    9 1    
    13    4   21 1    
    14    5    6 1    
    15    5   10 1    
    16    5   12 1    
    17    7   22 1    
    18    8   23 1    
    19    9   24 1    
    20   10   11 1    
    21   10   25 1    
    22   10   26 1    
    23   11   27 1    
    24   12   13 1    
    25   13   14 1    
    26   13   28 1    
    27   13   29 1    
    28   14   15 1    
    29   14   30 1    
    30   14   31 1    
    31   15   16 1    
    32   15   32 1    
    33   15   33 1    
    34   16   34 1    
    35   16   35 1    
    36   16   36 1    
@<TRIPOS>SUBSTRUCTURE
     1 ****        1 TEMP              0 ****  ****    0 ROOT 
@<TRIPOS>NORMAL
@<TRIPOS>FF_PBC
FORCE_FIELD_SETUP_FEATURE Force Field Setup information
v1.0  0 0.000000 0.000000 0.000000 0.000000 0.000000 0.000000 NONE 0 0 0 0 1 0 0 0 0 0 0 0 0
