@<TRIPOS>MOLECULE
MOL012223
   46    46     1     1     0
SMALL
GASTEIGER


@<TRIPOS>ATOM
      1 C          -6.155619    0.085419   -0.421569 C.3       1 <1>        -0.062940 
      2 C          -4.747798   -0.365700    0.054190 C.3       1 <1>        -0.029649 
      3 C          -3.709387   -0.652844   -1.073031 C.3       1 <1>         0.056424 
      4 O          -2.791602   -1.598937   -0.481735 O.3       1 <1>        -0.391743 
      5 C          -2.879298    0.564369   -1.603257 C.3       1 <1>        -0.011193 
      6 C          -3.579561    1.512657   -2.629363 C.3       1 <1>         0.012738 
      7 N          -4.638812    2.405539   -2.085854 N.3       1 <1>        -0.299302 
      8 C          -5.403286    3.139373   -3.133709 C.3       1 <1>         0.012738 
      9 C          -4.429964    3.996157   -3.995349 C.3       1 <1>        -0.037205 
     10 C          -3.232898    3.171615   -4.537723 C.3       1 <1>        -0.050226 
     11 C          -2.541502    2.384278   -3.394215 C.3       1 <1>        -0.037205 
     12 C          -6.308086    2.173879   -3.964194 C.3       1 <1>        -0.011193 
     13 C          -7.582615    2.831844   -4.579567 C.3       1 <1>         0.056424 
     14 O          -7.827995    2.189945   -5.847757 O.3       1 <1>        -0.391743 
     15 C          -8.858697    2.661517   -3.698834 C.3       1 <1>        -0.029649 
     16 C          -8.756701    3.279644   -2.280225 C.3       1 <1>        -0.062940 
     17 C          -4.327611    3.221021   -0.880174 C.3       1 <1>        -0.012201 
     18 H          -6.851100    0.095389    0.433199 H         1 <1>         0.023056 
     19 H          -6.141199    1.095317   -0.838403 H         1 <1>         0.023056 
     20 H          -6.552863   -0.605322   -1.181157 H         1 <1>         0.023056 
     21 H          -4.918514   -1.318513    0.585168 H         1 <1>         0.028737 
     22 H          -4.330475    0.340916    0.787405 H         1 <1>         0.028737 
     23 H          -4.225675   -1.157830   -1.908557 H         1 <1>         0.059347 
     24 H          -2.158354   -1.973479   -1.086352 H         1 <1>         0.209777 
     25 H          -2.418708    1.111055   -0.769127 H         1 <1>         0.030516 
     26 H          -2.040697    0.114282   -2.158688 H         1 <1>         0.030516 
     27 H          -4.035439    0.835027   -3.368345 H         1 <1>         0.046325 
     28 H          -6.088488    3.849472   -2.647958 H         1 <1>         0.046325 
     29 H          -4.966647    4.466894   -4.834430 H         1 <1>         0.028031 
     30 H          -4.020118    4.803999   -3.367317 H         1 <1>         0.028031 
     31 H          -2.502939    3.850039   -5.011921 H         1 <1>         0.026625 
     32 H          -3.569631    2.465924   -5.312479 H         1 <1>         0.026625 
     33 H          -1.751881    1.757966   -3.842352 H         1 <1>         0.028031 
     34 H          -2.054159    3.081233   -2.696198 H         1 <1>         0.028031 
     35 H          -5.719510    1.751162   -4.789030 H         1 <1>         0.030516 
     36 H          -6.618582    1.328437   -3.332972 H         1 <1>         0.030516 
     37 H          -7.393605    3.903441   -4.765922 H         1 <1>         0.059347 
     38 H          -8.564267    2.555369   -6.328972 H         1 <1>         0.209777 
     39 H          -9.707113    3.140496   -4.215889 H         1 <1>         0.028737 
     40 H          -9.087357    1.586717   -3.607899 H         1 <1>         0.028737 
     41 H          -9.724389    3.185026   -1.762742 H         1 <1>         0.023056 
     42 H          -8.000434    2.759353   -1.674543 H         1 <1>         0.023056 
     43 H          -8.503253    4.348681   -2.344098 H         1 <1>         0.023056 
     44 H          -3.974866    2.603762   -0.046926 H         1 <1>         0.039081 
     45 H          -3.568387    3.987803   -1.087579 H         1 <1>         0.039081 
     46 H          -5.231073    3.728452   -0.510074 H         1 <1>         0.039081 
@<TRIPOS>BOND
     1    1    2 1    
     2    1   18 1    
     3    1   19 1    
     4    1   20 1    
     5    2    3 1    
     6    2   21 1    
     7    2   22 1    
     8    3    4 1    
     9    3    5 1    
    10    3   23 1    
    11    4   24 1    
    12    5    6 1    
    13    5   25 1    
    14    5   26 1    
    15    6    7 1    
    16    6   11 1    
    17    6   27 1    
    18    7    8 1    
    19    7   17 1    
    20    8    9 1    
    21    8   12 1    
    22    8   28 1    
    23    9   10 1    
    24    9   29 1    
    25    9   30 1    
    26   10   11 1    
    27   10   31 1    
    28   10   32 1    
    29   11   33 1    
    30   11   34 1    
    31   12   13 1    
    32   12   35 1    
    33   12   36 1    
    34   13   14 1    
    35   13   15 1    
    36   13   37 1    
    37   14   38 1    
    38   15   16 1    
    39   15   39 1    
    40   15   40 1    
    41   16   41 1    
    42   16   42 1    
    43   16   43 1    
    44   17   44 1    
    45   17   45 1    
    46   17   46 1    
@<TRIPOS>SUBSTRUCTURE
     1 ****        1 TEMP              0 ****  ****    0 ROOT 
@<TRIPOS>NORMAL
@<TRIPOS>FF_PBC
FORCE_FIELD_SETUP_FEATURE Force Field Setup information
v1.0  0 0.000000 0.000000 0.000000 0.000000 0.000000 0.000000 NONE 0 0 0 0 1 0 0 0 0 0 0 0 0
