@<TRIPOS>MOLECULE
MOL012228
   42    42     1     1     0
SMALL
GASTEIGER


@<TRIPOS>ATOM
      1 C           0.944476    1.508605   -0.440130 C.3       1 <1>        -0.062940 
      2 C           1.960247    0.403485   -0.040584 C.3       1 <1>        -0.029649 
      3 C           2.268435   -0.613559   -1.179200 C.3       1 <1>         0.056419 
      4 O           2.894277    0.120814   -2.246256 O.3       1 <1>        -0.391743 
      5 C           0.996029   -1.379465   -1.653474 C.3       1 <1>        -0.011310 
      6 C           1.265363   -2.508917   -2.697880 C.3       1 <1>         0.012553 
      7 N           0.479285   -3.740781   -2.443147 N.3       1 <1>        -0.309871 
      8 C          -0.946692   -3.834113   -2.835125 C.3       1 <1>         0.016861 
      9 C          -1.084480   -3.402070   -4.319904 C.3       1 <1>        -0.010940 
     10 C          -0.436778   -2.021597   -4.584552 C.3       1 <1>         0.058088 
     11 C           1.059681   -2.061314   -4.175645 C.3       1 <1>        -0.011250 
     12 C          -1.891155   -3.066510   -1.865227 C.3       1 <1>         0.021312 
     13 C          -3.358813   -3.317520   -2.121517 C.2       1 <1>         0.134583 
     14 C          -4.367523   -2.478054   -1.374302 C.3       1 <1>         0.003040 
     15 C          -4.929832   -3.266694   -0.164870 C.3       1 <1>        -0.058575 
     16 O          -3.738072   -4.182724   -2.892713 O.2       1 <1>        -0.297366 
     17 O          -0.562301   -1.752935   -5.993643 O.3       1 <1>        -0.391682 
     18 H           0.905483    2.281205    0.344038 H         1 <1>         0.023056 
     19 H          -0.070865    1.099487   -0.554210 H         1 <1>         0.023056 
     20 H           1.246701    1.985607   -1.384519 H         1 <1>         0.023056 
     21 H           2.910141    0.891456    0.236104 H         1 <1>         0.028737 
     22 H           1.584120   -0.128548    0.850163 H         1 <1>         0.028737 
     23 H           2.992144   -1.339855   -0.763686 H         1 <1>         0.059347 
     24 H           3.273872   -0.431054   -2.921206 H         1 <1>         0.209777 
     25 H           0.539212   -1.818877   -0.753889 H         1 <1>         0.030511 
     26 H           0.291200   -0.653369   -2.077988 H         1 <1>         0.030511 
     27 H           2.318510   -2.821126   -2.589218 H         1 <1>         0.046196 
     28 H           0.650573   -4.133222   -1.446538 H         1 <1>         0.122469 
     29 H          -1.226822   -4.900749   -2.771611 H         1 <1>         0.046523 
     30 H          -2.138169   -3.378356   -4.636678 H         1 <1>         0.030521 
     31 H          -0.566389   -4.145266   -4.948860 H         1 <1>         0.030521 
     32 H          -0.981904   -1.239031   -4.032828 H         1 <1>         0.059407 
     33 H           1.558692   -2.785558   -4.839778 H         1 <1>         0.030512 
     34 H           1.508446   -1.074509   -4.359916 H         1 <1>         0.030512 
     35 H          -1.685195   -3.399713   -0.837068 H         1 <1>         0.035676 
     36 H          -1.705124   -1.987485   -1.917092 H         1 <1>         0.035676 
     37 H          -3.912430   -1.542650   -1.010915 H         1 <1>         0.033884 
     38 H          -5.182775   -2.209730   -2.065802 H         1 <1>         0.033884 
     39 H          -5.657291   -2.649375    0.385272 H         1 <1>         0.023374 
     40 H          -5.435132   -4.183610   -0.507071 H         1 <1>         0.023374 
     41 H          -4.115876   -3.547559    0.520814 H         1 <1>         0.023374 
     42 H          -0.200093   -0.910664   -6.251366 H         1 <1>         0.209778 
@<TRIPOS>BOND
     1    1    2 1    
     2    1   18 1    
     3    1   19 1    
     4    1   20 1    
     5    2    3 1    
     6    2   21 1    
     7    2   22 1    
     8    3    4 1    
     9    3    5 1    
    10    3   23 1    
    11    4   24 1    
    12    5    6 1    
    13    5   25 1    
    14    5   26 1    
    15    6    7 1    
    16    6   11 1    
    17    6   27 1    
    18    7    8 1    
    19    7   28 1    
    20    8    9 1    
    21    8   12 1    
    22    8   29 1    
    23    9   10 1    
    24    9   30 1    
    25    9   31 1    
    26   10   11 1    
    27   10   17 1    
    28   10   32 1    
    29   11   33 1    
    30   11   34 1    
    31   12   13 1    
    32   12   35 1    
    33   12   36 1    
    34   13   14 1    
    35   13   16 2    
    36   14   15 1    
    37   14   37 1    
    38   14   38 1    
    39   15   39 1    
    40   15   40 1    
    41   15   41 1    
    42   17   42 1    
@<TRIPOS>SUBSTRUCTURE
     1 ****        1 TEMP              0 ****  ****    0 ROOT 
@<TRIPOS>NORMAL
@<TRIPOS>FF_PBC
FORCE_FIELD_SETUP_FEATURE Force Field Setup information
v1.0  0 0.000000 0.000000 0.000000 0.000000 0.000000 0.000000 NONE 0 0 0 0 1 0 0 0 0 0 0 0 0
