@<TRIPOS>MOLECULE
MOL012234
   41    41     1     1     0
SMALL
GASTEIGER


@<TRIPOS>ATOM
      1 C          -0.007234    0.608756    0.027333 C.3       1 <1>        -0.062940 
      2 C           1.235728   -0.317548    0.119128 C.3       1 <1>        -0.029649 
      3 C           0.838972   -1.814851    0.004720 C.3       1 <1>         0.056417 
      4 O           0.066076   -1.958359   -1.205578 O.3       1 <1>        -0.391743 
      5 C           2.085485   -2.764169   -0.026984 C.3       1 <1>        -0.011393 
      6 C           2.207352   -3.746097    1.185912 C.3       1 <1>         0.010218 
      7 N           3.224510   -3.257742    2.152492 N.3       1 <1>        -0.310037 
      8 C           3.527889   -4.139296    3.309069 C.3       1 <1>         0.014527 
      9 C           3.887475   -5.562981    2.807732 C.3       1 <1>        -0.037094 
     10 C           2.780317   -6.120601    1.885017 C.3       1 <1>        -0.050229 
     11 C           2.608327   -5.159283    0.685966 C.3       1 <1>        -0.037405 
     12 C           4.723688   -3.567697    4.136707 C.3       1 <1>         0.021230 
     13 C           4.344439   -2.715650    5.327108 C.2       1 <1>         0.134582 
     14 C           5.453585   -2.305231    6.272733 C.3       1 <1>         0.003040 
     15 C           4.925163   -1.889496    7.669983 C.3       1 <1>        -0.058575 
     16 O           3.192010   -2.368812    5.519845 O.2       1 <1>        -0.297366 
     17 H           0.291296    1.661963    0.155151 H         1 <1>         0.023056 
     18 H          -0.492920    0.507332   -0.956601 H         1 <1>         0.023056 
     19 H          -0.740911    0.356197    0.807584 H         1 <1>         0.023056 
     20 H           1.751729   -0.148328    1.078513 H         1 <1>         0.028737 
     21 H           1.924701   -0.054506   -0.700692 H         1 <1>         0.028737 
     22 H           0.176007   -2.033423    0.857345 H         1 <1>         0.059347 
     23 H          -0.301358   -2.828745   -1.324587 H         1 <1>         0.209777 
     24 H           2.028768   -3.338011   -0.966609 H         1 <1>         0.030510 
     25 H           3.022032   -2.189524   -0.098850 H         1 <1>         0.030510 
     26 H           1.240063   -3.867607    1.702671 H         1 <1>         0.046114 
     27 H           2.965386   -2.263618    2.500659 H         1 <1>         0.122467 
     28 H           2.632947   -4.235275    3.947369 H         1 <1>         0.046441 
     29 H           4.836455   -5.518007    2.250180 H         1 <1>         0.028034 
     30 H           4.019205   -6.249326    3.660363 H         1 <1>         0.028034 
     31 H           3.062790   -7.122670    1.525438 H         1 <1>         0.026625 
     32 H           1.831466   -6.214104    2.440693 H         1 <1>         0.026625 
     33 H           3.554912   -5.093596    0.126122 H         1 <1>         0.028025 
     34 H           1.835157   -5.563909    0.011923 H         1 <1>         0.028025 
     35 H           5.331700   -4.393468    4.536829 H         1 <1>         0.035675 
     36 H           5.369638   -2.978270    3.468596 H         1 <1>         0.035675 
     37 H           5.992577   -1.456472    5.822170 H         1 <1>         0.033884 
     38 H           6.164583   -3.135990    6.411337 H         1 <1>         0.033884 
     39 H           5.765913   -1.626913    8.332490 H         1 <1>         0.023374 
     40 H           4.366694   -2.723117    8.126619 H         1 <1>         0.023374 
     41 H           4.257686   -1.016857    7.587405 H         1 <1>         0.023374 
@<TRIPOS>BOND
     1    1    2 1    
     2    1   17 1    
     3    1   18 1    
     4    1   19 1    
     5    2    3 1    
     6    2   20 1    
     7    2   21 1    
     8    3    4 1    
     9    3    5 1    
    10    3   22 1    
    11    4   23 1    
    12    5    6 1    
    13    5   24 1    
    14    5   25 1    
    15    6    7 1    
    16    6   11 1    
    17    6   26 1    
    18    7    8 1    
    19    7   27 1    
    20    8    9 1    
    21    8   12 1    
    22    8   28 1    
    23    9   10 1    
    24    9   29 1    
    25    9   30 1    
    26   10   11 1    
    27   10   31 1    
    28   10   32 1    
    29   11   33 1    
    30   11   34 1    
    31   12   13 1    
    32   12   35 1    
    33   12   36 1    
    34   13   14 1    
    35   13   16 2    
    36   14   15 1    
    37   14   37 1    
    38   14   38 1    
    39   15   39 1    
    40   15   40 1    
    41   15   41 1    
@<TRIPOS>SUBSTRUCTURE
     1 ****        1 TEMP              0 ****  ****    0 ROOT 
@<TRIPOS>NORMAL
@<TRIPOS>FF_PBC
FORCE_FIELD_SETUP_FEATURE Force Field Setup information
v1.0  0 0.000000 0.000000 0.000000 0.000000 0.000000 0.000000 NONE 0 0 0 0 1 0 0 0 0 0 0 0 0
