@<TRIPOS>MOLECULE
MOL009653
   81    85     1     1     0
SMALL
GASTEIGER


@<TRIPOS>ATOM
      1 O          -5.437538   -2.806407    2.773483 O.3       1 <1>        -0.391513 
      2 C          -2.163842   -1.504218    0.481245 C.3       1 <1>        -0.019434 
      3 C          -3.457243   -2.374873    0.588957 C.3       1 <1>        -0.019552 
      4 C          -2.808398   -1.800926    1.869587 C.3       1 <1>        -0.040124 
      5 C          -0.796109   -2.233291    0.276300 C.3       1 <1>        -0.028929 
      6 C           0.220731   -1.316693   -0.483566 C.3       1 <1>        -0.023053 
      7 C          -3.387259   -3.913776    0.405136 C.3       1 <1>        -0.029920 
      8 C          -2.363873   -0.042671   -0.038186 C.3       1 <1>        -0.046048 
      9 C           0.251479    0.111899    0.175785 C.3       1 <1>        -0.023313 
     10 C          -4.836949   -1.759094    0.207592 C.3       1 <1>        -0.044234 
     11 C          -0.975523   -3.649188   -0.345534 C.3       1 <1>        -0.048898 
     12 C          -1.077865    0.837796   -0.195383 C.3       1 <1>        -0.046326 
     13 C          -1.950984   -4.502485    0.505917 C.3       1 <1>        -0.049079 
     14 C          -4.407851   -4.595412    1.376303 C.3       1 <1>        -0.014449 
     15 C           1.545473    0.758132   -0.440300 C.3       1 <1>        -0.032516 
     16 C           1.708030   -1.756999   -0.338307 C.3       1 <1>        -0.046569 
     17 C          -5.974165   -2.797965    0.429008 C.3       1 <1>        -0.026067 
     18 C           2.533959   -0.449660   -0.517141 C.3       1 <1>        -0.048935 
     19 C          -0.133492   -1.327655   -2.015129 C.3       1 <1>        -0.058784 
     20 C          -5.652589   -3.686793    1.653710 C.3       1 <1>         0.058095 
     21 C           0.390371    0.073528    1.736040 C.3       1 <1>        -0.058793 
     22 C           2.198920    2.064358    0.149852 C.3       1 <1>        -0.040247 
     23 C          -4.856685   -5.988191    0.837824 C.3       1 <1>        -0.059800 
     24 C           3.355100    2.532805   -0.801799 C.3       1 <1>        -0.046499 
     25 C           1.179452    3.242138    0.294104 C.3       1 <1>        -0.062137 
     26 C           4.393962    3.520575   -0.181700 C.3       1 <1>        -0.031500 
     27 C           4.906617    4.513907   -1.214276 C.2       1 <1>        -0.074033 
     28 C           4.959384    5.981116   -0.803084 C.3       1 <1>        -0.025816 
     29 C           5.299961    4.087197   -2.424914 C.2       1 <1>        -0.099201 
     30 C           4.852642    7.001770   -1.972619 C.3       1 <1>        -0.058962 
     31 C           6.258468    6.221061    0.012538 C.3       1 <1>        -0.058962 
     32 H          -3.328912   -0.983059    2.384586 H         1 <1>         0.027645 
     33 H          -2.352595   -2.538442    2.540462 H         1 <1>         0.027645 
     34 H          -0.361803   -2.427043    1.267882 H         1 <1>         0.031173 
     35 H          -3.719421   -4.075257   -0.635378 H         1 <1>         0.030968 
     36 H          -2.863941   -0.114681   -1.015536 H         1 <1>         0.027104 
     37 H          -3.070915    0.505234    0.604505 H         1 <1>         0.027104 
     38 H          -4.830913   -1.464968   -0.854686 H         1 <1>         0.027166 
     39 H          -5.058740   -0.861903    0.806940 H         1 <1>         0.027166 
     40 H           0.005267   -4.153120   -0.402589 H         1 <1>         0.026837 
     41 H          -1.392385   -3.597127   -1.362810 H         1 <1>         0.026837 
     42 H          -1.015200    1.200259   -1.235101 H         1 <1>         0.027095 
     43 H          -1.184121    1.739893    0.425754 H         1 <1>         0.027095 
     44 H          -1.599447   -4.549085    1.548067 H         1 <1>         0.026829 
     45 H          -1.946418   -5.534189    0.119776 H         1 <1>         0.026829 
     46 H          -3.907504   -4.777034    2.342485 H         1 <1>         0.032579 
     47 H           1.315216    1.068108   -1.467651 H         1 <1>         0.030879 
     48 H           2.008110   -2.532301   -1.061563 H         1 <1>         0.027086 
     49 H           1.904045   -2.188964    0.655505 H         1 <1>         0.027086 
     50 H          -6.929290   -2.268895    0.580476 H         1 <1>         0.029029 
     51 H          -6.086709   -3.441306   -0.458286 H         1 <1>         0.029029 
     52 H           3.050640   -0.474597   -1.492298 H         1 <1>         0.026837 
     53 H           3.301945   -0.393762    0.274413 H         1 <1>         0.026837 
     54 H           0.354811   -0.549285   -2.611481 H         1 <1>         0.023533 
     55 H          -1.212982   -1.238678   -2.188529 H         1 <1>         0.023533 
     56 H           0.174956   -2.278921   -2.474125 H         1 <1>         0.023533 
     57 H          -6.540320   -4.304648    1.877102 H         1 <1>         0.059582 
     58 H           1.250335   -0.514546    2.079669 H         1 <1>         0.023533 
     59 H           0.526155    1.076882    2.150274 H         1 <1>         0.023533 
     60 H          -0.514845   -0.316182    2.220426 H         1 <1>         0.023533 
     61 H           2.649235    1.843412    1.133416 H         1 <1>         0.030105 
     62 H          -5.498819   -6.490639    1.579306 H         1 <1>         0.023330 
     63 H          -3.991195   -6.638940    0.647344 H         1 <1>         0.023330 
     64 H          -5.425437   -5.874796   -0.097682 H         1 <1>         0.023330 
     65 H           2.879027    3.002077   -1.679239 H         1 <1>         0.027096 
     66 H           3.938504    1.678460   -1.177592 H         1 <1>         0.027096 
     67 H          -5.294571   -3.261957    3.595690 H         1 <1>         0.209788 
     68 H           0.525767    3.123363    1.165536 H         1 <1>         0.023250 
     69 H           1.678648    4.210641    0.430133 H         1 <1>         0.023250 
     70 H           0.554958    3.330685   -0.607224 H         1 <1>         0.023250 
     71 H           5.258583    2.957589    0.207730 H         1 <1>         0.031007 
     72 H           3.962770    4.040643    0.683815 H         1 <1>         0.031007 
     73 H           4.091669    6.199757   -0.154154 H         1 <1>         0.034017 
     74 H           5.684220    4.745392   -3.197388 H         1 <1>         0.053449 
     75 H           5.262088    3.037414   -2.707102 H         1 <1>         0.053449 
     76 H           5.750746    6.988563   -2.606961 H         1 <1>         0.023535 
     77 H           3.970780    6.781628   -2.593144 H         1 <1>         0.023535 
     78 H           6.323809    7.272736    0.336240 H         1 <1>         0.023535 
     79 H           6.268802    5.579716    0.908494 H         1 <1>         0.023535 
     80 H           7.144085    5.983046   -0.598435 H         1 <1>         0.023535 
     81 H           4.743397    8.022874   -1.575389 H         1 <1>         0.023535 
@<TRIPOS>BOND
     1   20    1 1    
     2    1   67 1    
     3    3    2 1    
     4    4    2 1    
     5    2    5 1    
     6    2    8 1    
     7    3    4 1    
     8    7    3 1    
     9    3   10 1    
    10    4   32 1    
    11    4   33 1    
    12    5    6 1    
    13   11    5 1    
    14    5   34 1    
    15    6    9 1    
    16    6   16 1    
    17    6   19 1    
    18    7   13 1    
    19   14    7 1    
    20    7   35 1    
    21    8   12 1    
    22    8   36 1    
    23    8   37 1    
    24   12    9 1    
    25    9   15 1    
    26    9   21 1    
    27   10   17 1    
    28   10   38 1    
    29   10   39 1    
    30   13   11 1    
    31   11   40 1    
    32   11   41 1    
    33   12   42 1    
    34   12   43 1    
    35   13   44 1    
    36   13   45 1    
    37   14   20 1    
    38   14   23 1    
    39   14   46 1    
    40   15   18 1    
    41   15   22 1    
    42   15   47 1    
    43   16   18 1    
    44   16   48 1    
    45   16   49 1    
    46   17   20 1    
    47   17   50 1    
    48   17   51 1    
    49   18   52 1    
    50   18   53 1    
    51   19   54 1    
    52   19   55 1    
    53   19   56 1    
    54   20   57 1    
    55   21   58 1    
    56   21   59 1    
    57   21   60 1    
    58   22   24 1    
    59   22   25 1    
    60   22   61 1    
    61   23   62 1    
    62   23   63 1    
    63   23   64 1    
    64   24   26 1    
    65   24   65 1    
    66   24   66 1    
    67   25   68 1    
    68   25   69 1    
    69   25   70 1    
    70   26   27 1    
    71   26   71 1    
    72   26   72 1    
    73   27   28 1    
    74   27   29 2    
    75   28   30 1    
    76   28   31 1    
    77   28   73 1    
    78   29   74 1    
    79   29   75 1    
    80   30   76 1    
    81   30   77 1    
    82   30   81 1    
    83   31   78 1    
    84   31   79 1    
    85   31   80 1    
@<TRIPOS>SUBSTRUCTURE
     1 ****        2 TEMP              0 ****  ****    0 ROOT 
@<TRIPOS>NORMAL
@<TRIPOS>FF_PBC
FORCE_FIELD_SETUP_FEATURE Force Field Setup information
v1.0  0 0.000000 0.000000 0.000000 0.000000 0.000000 0.000000 NONE 0 0 0 0 1 0 0 0 0 0 0 0 0
