@<TRIPOS>MOLECULE
MOL001901
   84    88     1     1     0
SMALL
GASTEIGER


@<TRIPOS>ATOM
      1 O          -8.079534   -1.169097    0.348496 O.3       1 <1>        -0.391248 
      2 C          -2.321303   -0.475314   -0.128159 C.3       1 <1>        -0.019425 
      3 C          -3.860379   -0.600150    0.119028 C.3       1 <1>        -0.019309 
      4 C          -3.314035   -0.714204   -1.314704 C.3       1 <1>        -0.040115 
      5 C          -1.683543    0.951584   -0.196759 C.3       1 <1>        -0.028928 
      6 C          -4.685037    0.661118    0.510536 C.3       1 <1>        -0.027341 
      7 C          -0.171011    0.937699    0.206697 C.3       1 <1>        -0.023053 
      8 C          -1.420540   -1.724200    0.174799 C.3       1 <1>        -0.046048 
      9 C           0.580019   -0.215557   -0.551609 C.3       1 <1>        -0.023313 
     10 C          -4.404743   -1.914138    0.738540 C.3       1 <1>        -0.044216 
     11 C          -2.527927    1.996319    0.582720 C.3       1 <1>        -0.048890 
     12 C          -3.999973    1.998448    0.101778 C.3       1 <1>        -0.048835 
     13 C           0.134930   -1.555521    0.100381 C.3       1 <1>        -0.046326 
     14 C          -6.204030    0.510142    0.128025 C.3       1 <1>        -0.005572 
     15 C           2.090348    0.165127   -0.349092 C.3       1 <1>        -0.032516 
     16 C           0.610587    2.197081   -0.264595 C.3       1 <1>        -0.046569 
     17 C          -5.895808   -2.073697    0.359342 C.3       1 <1>        -0.025814 
     18 C          -6.737686   -0.830059    0.752551 C.3       1 <1>         0.060638 
     19 C           2.080559    1.722045   -0.437114 C.3       1 <1>        -0.048935 
     20 C          -0.056016    0.863440    1.772716 C.3       1 <1>        -0.058784 
     21 C           0.267537   -0.279834   -2.084576 C.3       1 <1>        -0.058793 
     22 C           3.222944   -0.475088   -1.228738 C.3       1 <1>        -0.040247 
     23 C          -7.018028    1.707931    0.719021 C.3       1 <1>        -0.057190 
     24 C          -6.443264    0.513389   -1.413001 C.3       1 <1>        -0.057190 
     25 C           4.636326    0.127010   -0.914457 C.3       1 <1>        -0.046499 
     26 C           3.283847   -2.029931   -1.119056 C.3       1 <1>        -0.062137 
     27 C           5.137963   -0.081493    0.542472 C.3       1 <1>        -0.031500 
     28 C           6.586756    0.349666    0.658129 C.2       1 <1>        -0.074033 
     29 C           7.636432   -0.704196    0.346061 C.3       1 <1>        -0.025816 
     30 C           6.898839    1.601193    1.025530 C.2       1 <1>        -0.099201 
     31 C           8.090052   -1.375748    1.668549 C.3       1 <1>        -0.058962 
     32 C           8.858302   -0.159904   -0.445588 C.3       1 <1>        -0.058962 
     33 H          -3.555239    0.114440   -1.993802 H         1 <1>         0.027645 
     34 H          -3.430406   -1.712460   -1.762667 H         1 <1>         0.027645 
     35 H          -1.723070    1.301943   -1.239079 H         1 <1>         0.031173 
     36 H          -4.656073    0.653923    1.613090 H         1 <1>         0.031227 
     37 H          -1.685207   -2.552037   -0.501889 H         1 <1>         0.027104 
     38 H          -1.676385   -2.056517    1.193534 H         1 <1>         0.027104 
     39 H          -4.301695   -1.847064    1.833169 H         1 <1>         0.027166 
     40 H          -3.875774   -2.818494    0.402073 H         1 <1>         0.027166 
     41 H          -2.090011    2.999295    0.443725 H         1 <1>         0.026837 
     42 H          -2.549538    1.777536    1.660056 H         1 <1>         0.026837 
     43 H          -4.486910    2.847987    0.605986 H         1 <1>         0.026838 
     44 H          -4.041608    2.187419   -0.979743 H         1 <1>         0.026838 
     45 H           0.564833   -1.635267    1.111433 H         1 <1>         0.027095 
     46 H           0.560104   -2.403612   -0.454375 H         1 <1>         0.027095 
     47 H           2.363876   -0.137862    0.668368 H         1 <1>         0.030879 
     48 H           0.536182    3.047447    0.431644 H         1 <1>         0.027086 
     49 H           0.225470    2.559821   -1.231033 H         1 <1>         0.027086 
     50 H          -5.986452   -2.272113   -0.718904 H         1 <1>         0.029038 
     51 H          -6.303112   -2.955140    0.883519 H         1 <1>         0.029038 
     52 H          -6.703115   -0.754446    1.854444 H         1 <1>         0.059852 
     53 H           2.445471    2.069426   -1.417912 H         1 <1>         0.026837 
     54 H           2.729806    2.157960    0.340723 H         1 <1>         0.026837 
     55 H          -0.352007    1.814754    2.237426 H         1 <1>         0.023533 
     56 H          -0.713412    0.085132    2.185798 H         1 <1>         0.023533 
     57 H           0.956943    0.679481    2.146266 H         1 <1>         0.023533 
     58 H           0.843643   -1.076904   -2.569132 H         1 <1>         0.023533 
     59 H          -0.780508   -0.523229   -2.295221 H         1 <1>         0.023533 
     60 H           0.513121    0.658755   -2.598978 H         1 <1>         0.023533 
     61 H           3.037186   -0.221950   -2.286150 H         1 <1>         0.030105 
     62 H          -8.096889    1.601240    0.544110 H         1 <1>         0.023587 
     63 H          -6.857745    1.793672    1.804651 H         1 <1>         0.023587 
     64 H          -6.735659    2.660697    0.250029 H         1 <1>         0.023587 
     65 H          -6.121709    1.462563   -1.864179 H         1 <1>         0.023587 
     66 H          -5.917455   -0.298689   -1.927613 H         1 <1>         0.023587 
     67 H          -7.516394    0.395788   -1.626748 H         1 <1>         0.023587 
     68 H          -8.753991   -0.579229    0.664101 H         1 <1>         0.209800 
     69 H           4.659968    1.207688   -1.123345 H         1 <1>         0.027096 
     70 H           5.367404   -0.328587   -1.602071 H         1 <1>         0.027096 
     71 H           2.492522   -2.512132   -1.706620 H         1 <1>         0.023250 
     72 H           3.189117   -2.358759   -0.073819 H         1 <1>         0.023250 
     73 H           4.234623   -2.418393   -1.514087 H         1 <1>         0.023250 
     74 H           5.047925   -1.133322    0.850341 H         1 <1>         0.031007 
     75 H           4.529938    0.511839    1.241896 H         1 <1>         0.031007 
     76 H           7.182686   -1.480455   -0.295621 H         1 <1>         0.034017 
     77 H           7.924270    1.945261    1.135484 H         1 <1>         0.053449 
     78 H           6.121893    2.336038    1.233711 H         1 <1>         0.053449 
     79 H           7.227310   -1.819026    2.190009 H         1 <1>         0.023535 
     80 H           8.821809   -2.172933    1.464686 H         1 <1>         0.023535 
     81 H           8.555178   -0.631283    2.332749 H         1 <1>         0.023535 
     82 H           9.489273    0.495264    0.172353 H         1 <1>         0.023535 
     83 H           9.487019   -0.995442   -0.792446 H         1 <1>         0.023535 
     84 H           8.512817    0.404518   -1.325771 H         1 <1>         0.023535 
@<TRIPOS>BOND
     1   18    1 1    
     2    1   68 1    
     3    3    2 1    
     4    4    2 1    
     5    2    5 1    
     6    2    8 1    
     7    3    4 1    
     8    6    3 1    
     9    3   10 1    
    10    4   33 1    
    11    4   34 1    
    12    5    7 1    
    13   11    5 1    
    14    5   35 1    
    15    6   12 1    
    16   14    6 1    
    17    6   36 1    
    18    7    9 1    
    19    7   16 1    
    20    7   20 1    
    21    8   13 1    
    22    8   37 1    
    23    8   38 1    
    24   13    9 1    
    25    9   15 1    
    26    9   21 1    
    27   10   17 1    
    28   10   39 1    
    29   10   40 1    
    30   12   11 1    
    31   11   41 1    
    32   11   42 1    
    33   12   43 1    
    34   12   44 1    
    35   13   45 1    
    36   13   46 1    
    37   14   18 1    
    38   14   23 1    
    39   14   24 1    
    40   15   19 1    
    41   15   22 1    
    42   15   47 1    
    43   16   19 1    
    44   16   48 1    
    45   16   49 1    
    46   17   18 1    
    47   17   50 1    
    48   17   51 1    
    49   18   52 1    
    50   19   53 1    
    51   19   54 1    
    52   20   55 1    
    53   20   56 1    
    54   20   57 1    
    55   21   58 1    
    56   21   59 1    
    57   21   60 1    
    58   22   25 1    
    59   22   26 1    
    60   22   61 1    
    61   23   62 1    
    62   23   63 1    
    63   23   64 1    
    64   24   65 1    
    65   24   66 1    
    66   24   67 1    
    67   25   27 1    
    68   25   69 1    
    69   25   70 1    
    70   26   71 1    
    71   26   72 1    
    72   26   73 1    
    73   27   28 1    
    74   27   74 1    
    75   27   75 1    
    76   28   29 1    
    77   28   30 2    
    78   29   31 1    
    79   29   32 1    
    80   29   76 1    
    81   30   77 1    
    82   30   78 1    
    83   31   79 1    
    84   31   80 1    
    85   31   81 1    
    86   32   82 1    
    87   32   83 1    
    88   32   84 1    
@<TRIPOS>SUBSTRUCTURE
     1 ****        2 TEMP              0 ****  ****    0 ROOT 
@<TRIPOS>NORMAL
@<TRIPOS>FF_PBC
FORCE_FIELD_SETUP_FEATURE Force Field Setup information
v1.0  0 0.000000 0.000000 0.000000 0.000000 0.000000 0.000000 NONE 0 0 0 0 1 0 0 0 0 0 0 0 0
