@<TRIPOS>MOLECULE
MOL000103
   16    16     1     1     0
SMALL
GASTEIGER


@<TRIPOS>ATOM
      1 C          -1.614633   -0.554965   -0.000000 C.ar      1 <1>        -0.031201 
      2 C          -0.866342   -1.734536    0.000000 C.ar      1 <1>         0.072621 
      3 C           0.532047   -1.659378   -0.000000 C.ar      1 <1>        -0.031201 
      4 C           1.168964   -0.414365    0.000000 C.ar      1 <1>        -0.046451 
      5 C           0.419068    0.767609   -0.000000 C.ar      1 <1>         0.046437 
      6 C          -0.978101    0.689618   -0.000000 C.ar      1 <1>        -0.046451 
      7 O          -1.532252   -2.963604   -0.000000 O.3       1 <1>        -0.359832 
      8 C           1.107178    2.116735    0.000000 C.2       1 <1>         0.291238 
      9 O           0.374960    3.234247    0.000000 O.3       1 <1>        -0.327490 
     10 O           2.327396    2.176835   -0.000000 O.2       1 <1>        -0.259430 
     11 H          -2.698164   -0.613032    0.000000 H         1 <1>         0.064340 
     12 H           1.131718   -2.563888    0.000000 H         1 <1>         0.064340 
     13 H           2.253815   -0.371372    0.000000 H         1 <1>         0.062606 
     14 H          -1.576875    1.595012   -0.000000 H         1 <1>         0.062606 
     15 H          -0.960800   -3.723200   -0.000000 H         1 <1>         0.217313 
     16 H           0.912019    4.019289   -0.000000 H         1 <1>         0.220555 
@<TRIPOS>BOND
     1    1    2 ar   
     2    1    6 ar   
     3    1   11 1    
     4    2    3 ar   
     5    2    7 1    
     6    3    4 ar   
     7    3   12 1    
     8    4    5 ar   
     9    4   13 1    
    10    5    6 ar   
    11    5    8 1    
    12    6   14 1    
    13    7   15 1    
    14    8    9 1    
    15    8   10 2    
    16    9   16 1    
@<TRIPOS>SUBSTRUCTURE
     1 ****        1 TEMP              0 ****  ****    0 ROOT 
@<TRIPOS>NORMAL
@<TRIPOS>FF_PBC
FORCE_FIELD_SETUP_FEATURE Force Field Setup information
v1.0  0 0.000000 0.000000 0.000000 0.000000 0.000000 0.000000 NONE 0 0 0 0 1 0 0 0 0 0 0 0 0
