@<TRIPOS>MOLECULE
MOL007170
   27    28     1     1     0
SMALL
GASTEIGER


@<TRIPOS>ATOM
      1 O          -0.611746    0.625745    0.157406 O.3       1 <1>        -0.352962 
      2 C          -0.478264    1.988450   -0.305399 C.3       1 <1>         0.163409 
      3 C          -1.863939    0.344452    0.822353 C.3       1 <1>         0.163409 
      4 C           3.931983    0.911081   -2.633734 C.2       1 <1>         0.246172 
      5 C           2.786766    1.683129   -2.017365 C.ar      1 <1>         0.394907 
      6 C           2.728983    3.045940   -1.951037 C.ar      1 <1>         0.054473 
      7 C           1.459534    3.359257   -1.281028 C.ar      1 <1>         0.049253 
      8 C           0.874411    2.153086   -1.008625 C.ar      1 <1>         0.358556 
      9 O           1.654130    1.061299   -1.444864 O.2       1 <1>        -0.203920 
     10 O           3.902860   -0.308223   -2.649108 O.2       1 <1>        -0.286432 
     11 C          -0.482134   -4.508518    1.584118 C.2       1 <1>         0.246172 
     12 C          -1.290113   -3.229988    1.585571 C.ar      1 <1>         0.394907 
     13 C          -2.542552   -3.114945    2.117837 C.ar      1 <1>         0.054473 
     14 C          -2.941896   -1.717983    1.899589 C.ar      1 <1>         0.049253 
     15 C          -1.890257   -1.126012    1.256124 C.ar      1 <1>         0.358556 
     16 O          -0.821100   -2.018286    1.029835 O.2       1 <1>        -0.203920 
     17 O           0.631223   -4.521765    1.086077 O.2       1 <1>        -0.286432 
     18 H          -1.266161    2.238172   -1.033696 H         1 <1>         0.069971 
     19 H          -0.524759    2.694288    0.539468 H         1 <1>         0.069971 
     20 H          -2.715819    0.514821    0.144680 H         1 <1>         0.069971 
     21 H          -1.981655    0.969524    1.721942 H         1 <1>         0.069971 
     22 H           4.788296    1.426719   -3.067084 H         1 <1>         0.117466 
     23 H           3.465561    3.754265   -2.315962 H         1 <1>         0.071527 
     24 H           1.069711    4.345425   -1.051165 H         1 <1>         0.071129 
     25 H          -0.878291   -5.423974    2.022266 H         1 <1>         0.117466 
     26 H          -3.125624   -3.891507    2.601997 H         1 <1>         0.071527 
     27 H          -3.879046   -1.254452    2.189807 H         1 <1>         0.071129 
@<TRIPOS>BOND
     1    1    2 1    
     2    3    1 1    
     3    2    8 1    
     4    2   18 1    
     5    2   19 1    
     6   15    3 1    
     7    3   20 1    
     8    3   21 1    
     9    5    4 1    
    10    4   10 2    
    11    4   22 1    
    12    5    6 2    
    13    9    5 1    
    14    7    6 1    
    15    6   23 1    
    16    8    7 2    
    17    7   24 1    
    18    8    9 1    
    19   12   11 1    
    20   11   17 2    
    21   11   25 1    
    22   13   12 2    
    23   12   16 1    
    24   14   13 1    
    25   13   26 1    
    26   14   15 2    
    27   14   27 1    
    28   15   16 1    
@<TRIPOS>SUBSTRUCTURE
     1 ****       11 TEMP              0 ****  ****    0 ROOT 
@<TRIPOS>NORMAL
@<TRIPOS>FF_PBC
FORCE_FIELD_SETUP_FEATURE Force Field Setup information
v1.0  0 0.000000 0.000000 0.000000 0.000000 0.000000 0.000000 NONE 0 0 0 0 1 0 0 0 0 0 0 0 0
