@<TRIPOS>MOLECULE
MOL012237
  101   105     1     1     0
SMALL
GASTEIGER


@<TRIPOS>ATOM
      1 O          -0.893716    0.863758    0.057395 O.3       1 <1>        -0.345117 
      2 O          -0.132563   -1.352826   -0.285741 O.3       1 <1>        -0.340523 
      3 O          -2.948564   -2.238819    0.624961 O.3       1 <1>        -0.384104 
      4 O          -2.766179    0.110113   -2.208338 O.3       1 <1>        -0.386401 
      5 O          -1.838008   -3.427484   -1.555519 O.3       1 <1>        -0.386488 
      6 O           1.606658   -0.051707   -2.517758 O.3       1 <1>        -0.392366 
      7 C           5.497032    4.277008    0.176068 C.3       1 <1>        -0.025885 
      8 C           4.343536    5.017587   -0.547702 C.3       1 <1>        -0.031972 
      9 C           3.016214    4.211616   -0.518187 C.3       1 <1>        -0.030653 
     10 C           2.590303    3.931833    0.959747 C.3       1 <1>        -0.028547 
     11 C           6.692795    5.221215   -0.174725 C.3       1 <1>        -0.032778 
     12 C           5.108273    4.244552    1.684073 C.3       1 <1>        -0.046813 
     13 C           1.356565    2.954514    0.945810 C.3       1 <1>        -0.007819 
     14 C           4.932792    5.384590   -1.931416 C.3       1 <1>        -0.049160 
     15 C           3.761444    3.490894    1.915197 C.3       1 <1>        -0.048644 
     16 C           6.460088    5.576909   -1.674668 C.3       1 <1>        -0.049187 
     17 C           1.876963    4.966059   -1.254144 C.3       1 <1>        -0.031102 
     18 C           8.127716    4.735751    0.247734 C.3       1 <1>        -0.040533 
     19 C           5.765901    2.835017   -0.364399 C.3       1 <1>        -0.059038 
     20 C           0.252434    3.592892    0.102933 C.2       1 <1>        -0.064832 
     21 C           0.766848    2.770298    2.376714 C.3       1 <1>        -0.041305 
     22 C           0.505255    4.472838   -0.879194 C.2       1 <1>        -0.083873 
     23 C           1.746666    1.571098    0.326054 C.3       1 <1>        -0.055578 
     24 C          -1.183142    3.217593    0.413924 C.3       1 <1>        -0.004719 
     25 C          -0.498291    1.852153    2.407786 C.3       1 <1>        -0.025405 
     26 C           9.073390    5.875001    0.756644 C.3       1 <1>        -0.049933 
     27 C          -1.310961    1.821885    1.070502 C.3       1 <1>         0.065489 
     28 C           8.912386    3.919980   -0.828167 C.3       1 <1>        -0.062146 
     29 C           8.527324    6.672635    1.981020 C.3       1 <1>        -0.049734 
     30 C           9.614436    7.202804    2.973320 C.3       1 <1>        -0.038944 
     31 C          -1.149380   -0.534086    0.328197 C.3       1 <1>         0.188218 
     32 C           8.994283    7.957515    4.209561 C.3       1 <1>        -0.043894 
     33 C          10.642982    8.084635    2.185368 C.3       1 <1>        -0.052828 
     34 C          -2.594396   -0.997169   -0.022558 C.3       1 <1>         0.134121 
     35 C           9.784169    7.657096    5.518730 C.3       1 <1>        -0.062414 
     36 C           7.495128    7.655647    4.511175 C.3       1 <1>        -0.062414 
     37 C          -2.757481   -1.172992   -1.552963 C.3       1 <1>         0.114061 
     38 C          11.823697    8.652848    3.018179 C.3       1 <1>        -0.065017 
     39 C          -0.242384   -1.529689   -1.715995 C.3       1 <1>         0.113005 
     40 C          -1.640449   -2.102559   -2.092804 C.3       1 <1>         0.111896 
     41 C           0.189696   -0.312020   -2.586522 C.3       1 <1>         0.073015 
     42 H           4.138189    5.973169   -0.030948 H         1 <1>         0.030896 
     43 H           3.166017    3.277265   -1.072442 H         1 <1>         0.030949 
     44 H           2.246586    4.905831    1.358189 H         1 <1>         0.031195 
     45 H           6.494422    6.153953    0.374835 H         1 <1>         0.030870 
     46 H           5.002976    5.271849    2.073449 H         1 <1>         0.027078 
     47 H           5.903862    3.753276    2.268950 H         1 <1>         0.027078 
     48 H           4.741600    4.560395   -2.637018 H         1 <1>         0.026828 
     49 H           4.460661    6.291406   -2.345567 H         1 <1>         0.026828 
     50 H           3.974098    2.417031    1.869684 H         1 <1>         0.026846 
     51 H           3.463375    3.685112    2.959221 H         1 <1>         0.026846 
     52 H           6.791985    6.604400   -1.899074 H         1 <1>         0.026828 
     53 H           6.996129    4.906723   -2.356552 H         1 <1>         0.026828 
     54 H           1.898757    6.031900   -0.980229 H         1 <1>         0.031025 
     55 H           2.014135    4.888873   -2.345070 H         1 <1>         0.031025 
     56 H           8.001907    4.070390    1.117954 H         1 <1>         0.030096 
     57 H           6.623426    2.392280    0.160731 H         1 <1>         0.023524 
     58 H           5.961917    2.834599   -1.444598 H         1 <1>         0.023524 
     59 H           4.937904    2.143128   -0.199662 H         1 <1>         0.023524 
     60 H           0.508475    3.774114    2.762629 H         1 <1>         0.027446 
     61 H           1.523785    2.343310    3.054809 H         1 <1>         0.027446 
     62 H          -0.325669    4.891911   -1.448018 H         1 <1>         0.057190 
     63 H           1.426002    1.546415   -0.722114 H         1 <1>         0.023820 
     64 H           1.308359    0.716636    0.855051 H         1 <1>         0.023820 
     65 H           2.817206    1.361291    0.317832 H         1 <1>         0.023820 
     66 H          -1.784115    3.212859   -0.514131 H         1 <1>         0.033519 
     67 H          -1.593764    3.987925    1.089614 H         1 <1>         0.033519 
     68 H          -1.151601    2.226411    3.213845 H         1 <1>         0.029048 
     69 H          -0.208880    0.842811    2.720997 H         1 <1>         0.029048 
     70 H           9.298963    6.566394   -0.069515 H         1 <1>         0.026802 
     71 H          10.014397    5.392946    1.068835 H         1 <1>         0.026802 
     72 H          -2.376927    1.656343    1.300741 H         1 <1>         0.059993 
     73 H           9.231391    4.571779   -1.653802 H         1 <1>         0.023250 
     74 H           9.821088    3.485342   -0.380414 H         1 <1>         0.023250 
     75 H           8.340584    3.089689   -1.258294 H         1 <1>         0.023250 
     76 H           7.864227    5.990181    2.531525 H         1 <1>         0.026810 
     77 H           7.936067    7.528561    1.615670 H         1 <1>         0.026810 
     78 H          10.150254    6.312133    3.347848 H         1 <1>         0.030319 
     79 H          -0.983373   -0.749522    1.388521 H         1 <1>         0.093750 
     80 H           9.042247    9.039120    3.999661 H         1 <1>         0.029814 
     81 H          11.120814    7.496684    1.384334 H         1 <1>         0.026538 
     82 H          10.109773    8.925013    1.709773 H         1 <1>         0.026538 
     83 H          -3.322350   -0.235591    0.295469 H         1 <1>         0.067095 
     84 H           9.609099    6.617078    5.832189 H         1 <1>         0.023242 
     85 H          10.866303    7.788741    5.408927 H         1 <1>         0.023242 
     86 H           9.451476    8.320908    6.328489 H         1 <1>         0.023242 
     87 H           7.163862    8.238174    5.383321 H         1 <1>         0.023242 
     88 H           6.840196    7.941696    3.674762 H         1 <1>         0.023242 
     89 H           7.341755    6.591720    4.743387 H         1 <1>         0.023242 
     90 H          -3.731634   -1.662694   -1.727931 H         1 <1>         0.064758 
     91 H          12.522769    9.189660    2.356858 H         1 <1>         0.022986 
     92 H          11.471710    9.371081    3.772335 H         1 <1>         0.022986 
     93 H          12.379767    7.840579    3.511080 H         1 <1>         0.022986 
     94 H           0.492650   -2.319192   -1.947266 H         1 <1>         0.064668 
     95 H          -1.742933   -2.177128   -3.191167 H         1 <1>         0.064673 
     96 H          -2.922150   -2.203593    1.575689 H         1 <1>         0.210110 
     97 H          -0.059747   -0.498065   -3.644918 H         1 <1>         0.058370 
     98 H          -0.332537    0.603451   -2.277445 H         1 <1>         0.058370 
     99 H          -2.928261    0.055169   -3.145663 H         1 <1>         0.210005 
    100 H          -1.201566   -4.069515   -1.858643 H         1 <1>         0.210004 
    101 H           2.157870   -0.779031   -2.788178 H         1 <1>         0.209508 
@<TRIPOS>BOND
     1    1   27 1    
     2   31    1 1    
     3    2   31 1    
     4   39    2 1    
     5   34    3 1    
     6    3   96 1    
     7   37    4 1    
     8    4   99 1    
     9   40    5 1    
    10    5  100 1    
    11   41    6 1    
    12    6  101 1    
    13    8    7 1    
    14    7   11 1    
    15   12    7 1    
    16    7   19 1    
    17    9    8 1    
    18    8   14 1    
    19    8   42 1    
    20   10    9 1    
    21   17    9 1    
    22    9   43 1    
    23   13   10 1    
    24   10   15 1    
    25   10   44 1    
    26   11   16 1    
    27   11   18 1    
    28   11   45 1    
    29   15   12 1    
    30   12   46 1    
    31   12   47 1    
    32   20   13 1    
    33   21   13 1    
    34   13   23 1    
    35   14   16 1    
    36   14   48 1    
    37   14   49 1    
    38   15   50 1    
    39   15   51 1    
    40   16   52 1    
    41   16   53 1    
    42   22   17 1    
    43   17   54 1    
    44   17   55 1    
    45   18   26 1    
    46   18   28 1    
    47   18   56 1    
    48   19   57 1    
    49   19   58 1    
    50   19   59 1    
    51   20   22 2    
    52   24   20 1    
    53   25   21 1    
    54   21   60 1    
    55   21   61 1    
    56   22   62 1    
    57   23   63 1    
    58   23   64 1    
    59   23   65 1    
    60   27   24 1    
    61   24   66 1    
    62   24   67 1    
    63   27   25 1    
    64   25   68 1    
    65   25   69 1    
    66   26   29 1    
    67   26   70 1    
    68   26   71 1    
    69   27   72 1    
    70   28   73 1    
    71   28   74 1    
    72   28   75 1    
    73   29   30 1    
    74   29   76 1    
    75   29   77 1    
    76   30   32 1    
    77   30   33 1    
    78   30   78 1    
    79   31   34 1    
    80   31   79 1    
    81   32   35 1    
    82   32   36 1    
    83   32   80 1    
    84   33   38 1    
    85   33   81 1    
    86   33   82 1    
    87   37   34 1    
    88   34   83 1    
    89   35   84 1    
    90   35   85 1    
    91   35   86 1    
    92   36   87 1    
    93   36   88 1    
    94   36   89 1    
    95   40   37 1    
    96   37   90 1    
    97   38   91 1    
    98   38   92 1    
    99   38   93 1    
   100   39   40 1    
   101   39   41 1    
   102   39   94 1    
   103   40   95 1    
   104   41   97 1    
   105   41   98 1    
@<TRIPOS>SUBSTRUCTURE
     1 ****        7 TEMP              0 ****  ****    0 ROOT 
@<TRIPOS>NORMAL
@<TRIPOS>FF_PBC
FORCE_FIELD_SETUP_FEATURE Force Field Setup information
v1.0  0 0.000000 0.000000 0.000000 0.000000 0.000000 0.000000 NONE 0 0 0 0 1 0 0 0 0 0 0 0 0
