@<TRIPOS>MOLECULE
MOL012218
   45    45     1     1     0
SMALL
GASTEIGER


@<TRIPOS>ATOM
      1 C          -0.773349    0.337662    0.727422 C.3       1 <1>        -0.062940 
      2 C           0.699149   -0.091345    0.490708 C.3       1 <1>        -0.029649 
      3 C           0.961122   -1.546656    0.979278 C.3       1 <1>         0.056425 
      4 O           0.116957   -2.388494    0.171062 O.3       1 <1>        -0.391743 
      5 C           2.456429   -1.963358    0.817022 C.3       1 <1>        -0.011110 
      6 C           3.419646   -1.374470    1.894855 C.3       1 <1>         0.015083 
      7 N           4.759343   -1.140928    1.298047 N.3       1 <1>        -0.298819 
      8 C           5.518205   -2.394798    1.048343 C.3       1 <1>         0.019391 
      9 C           5.774639   -3.130708    2.388478 C.3       1 <1>        -0.010739 
     10 C           4.425633   -3.480283    3.063993 C.3       1 <1>         0.058101 
     11 C           3.545601   -2.206119    3.205238 C.3       1 <1>        -0.011050 
     12 C           6.839588   -2.164923    0.263841 C.3       1 <1>         0.021513 
     13 C           6.594707   -1.436761   -1.036057 C.2       1 <1>         0.134589 
     14 C           7.776303   -0.770516   -1.696400 C.3       1 <1>         0.003040 
     15 C           7.470335   -0.330823   -3.151160 C.3       1 <1>        -0.058575 
     16 O           5.483730   -1.390393   -1.542129 O.2       1 <1>        -0.297366 
     17 O           3.785704   -4.512973    2.294328 O.3       1 <1>        -0.391682 
     18 C           5.494172    0.054843    1.786662 C.3       1 <1>        -0.012187 
     19 H          -0.922935    1.368956    0.369994 H         1 <1>         0.023056 
     20 H          -1.470571   -0.322699    0.188052 H         1 <1>         0.023056 
     21 H          -1.010444    0.300891    1.802068 H         1 <1>         0.023056 
     22 H           1.344899    0.634529    1.007669 H         1 <1>         0.028737 
     23 H           0.921171   -0.034377   -0.588744 H         1 <1>         0.028737 
     24 H           0.664735   -1.636984    2.038292 H         1 <1>         0.059347 
     25 H           0.144782   -3.308434    0.412146 H         1 <1>         0.209777 
     26 H           2.522134   -3.058555    0.827035 H         1 <1>         0.030517 
     27 H           2.789474   -1.628090   -0.178580 H         1 <1>         0.030517 
     28 H           2.990206   -0.408571    2.196010 H         1 <1>         0.046407 
     29 H           4.905761   -3.055775    0.409966 H         1 <1>         0.046734 
     30 H           6.332937   -4.064472    2.210396 H         1 <1>         0.030528 
     31 H           6.380119   -2.498249    3.055367 H         1 <1>         0.030528 
     32 H           4.637049   -3.892324    4.068525 H         1 <1>         0.059407 
     33 H           4.027502   -1.566635    3.963580 H         1 <1>         0.030518 
     34 H           2.547537   -2.477297    3.582079 H         1 <1>         0.030518 
     35 H           7.284212   -3.140440    0.009959 H         1 <1>         0.035683 
     36 H           7.568447   -1.620960    0.883269 H         1 <1>         0.035683 
     37 H           8.051142    0.115942   -1.102109 H         1 <1>         0.033884 
     38 H           8.627980   -1.468777   -1.702280 H         1 <1>         0.033884 
     39 H           8.363672    0.124952   -3.605360 H         1 <1>         0.023374 
     40 H           7.171913   -1.201083   -3.755673 H         1 <1>         0.023374 
     41 H           6.653665    0.407615   -3.165338 H         1 <1>         0.023374 
     42 H           2.971487   -4.821471    2.680383 H         1 <1>         0.209778 
     43 H           6.289416    0.344944    1.086267 H         1 <1>         0.039081 
     44 H           5.938182   -0.122694    2.776404 H         1 <1>         0.039081 
     45 H           4.830128    0.929023    1.863399 H         1 <1>         0.039081 
@<TRIPOS>BOND
     1    1    2 1    
     2    1   19 1    
     3    1   20 1    
     4    1   21 1    
     5    2    3 1    
     6    2   22 1    
     7    2   23 1    
     8    3    4 1    
     9    3    5 1    
    10    3   24 1    
    11    4   25 1    
    12    5    6 1    
    13    5   26 1    
    14    5   27 1    
    15    6    7 1    
    16    6   11 1    
    17    6   28 1    
    18    7    8 1    
    19    7   18 1    
    20    8    9 1    
    21    8   12 1    
    22    8   29 1    
    23    9   10 1    
    24    9   30 1    
    25    9   31 1    
    26   10   11 1    
    27   10   17 1    
    28   10   32 1    
    29   11   33 1    
    30   11   34 1    
    31   12   13 1    
    32   12   35 1    
    33   12   36 1    
    34   13   14 1    
    35   13   16 2    
    36   14   15 1    
    37   14   37 1    
    38   14   38 1    
    39   15   39 1    
    40   15   40 1    
    41   15   41 1    
    42   17   42 1    
    43   18   43 1    
    44   18   44 1    
    45   18   45 1    
@<TRIPOS>SUBSTRUCTURE
     1 ****        1 TEMP              0 ****  ****    0 ROOT 
@<TRIPOS>NORMAL
@<TRIPOS>FF_PBC
FORCE_FIELD_SETUP_FEATURE Force Field Setup information
v1.0  0 0.000000 0.000000 0.000000 0.000000 0.000000 0.000000 NONE 0 0 0 0 1 0 0 0 0 0 0 0 0
