@<TRIPOS>MOLECULE
MOL000008
   30    32     1     1     0
SMALL
GASTEIGER


@<TRIPOS>ATOM
      1 C           0.027406    0.759318    0.048190 C.2       1 <1>         0.093865 
      2 C           0.646090    1.245752    1.134902 C.2       1 <1>         0.016918 
      3 C           1.221335    0.350403    2.145209 C.2       1 <1>         0.193509 
      4 O           1.780749    0.809023    3.127815 O.2       1 <1>        -0.287017 
      5 C           1.090305   -1.133178    1.914949 C.ar      1 <1>         0.081945 
      6 C           1.627772   -2.143597    2.858905 C.ar      1 <1>         0.088313 
      7 O           2.287807   -1.728347    4.018260 O.3       1 <1>        -0.358955 
      8 C           1.458654   -3.528451    2.561749 C.ar      1 <1>        -0.001303 
      9 C           0.756100   -3.949164    1.327712 C.ar      1 <1>         0.077519 
     10 C           0.250694   -2.958858    0.440072 C.ar      1 <1>        -0.000531 
     11 C           0.426007   -1.521181    0.748118 C.ar      1 <1>         0.098804 
     12 O          -0.079950   -0.567357   -0.140487 O.3       1 <1>        -0.307712 
     13 C          -0.586838    1.634956   -1.030605 C.ar      1 <1>         0.005751 
     14 C          -1.241529    0.957697   -2.180734 C.ar      1 <1>        -0.049682 
     15 C          -1.834755    1.695091   -3.222629 C.ar      1 <1>        -0.031304 
     16 C          -1.823833    3.174320   -3.203169 C.ar      1 <1>         0.072619 
     17 O          -2.421841    3.875552   -4.253473 O.3       1 <1>        -0.359832 
     18 C          -1.206570    3.845659   -2.118788 C.ar      1 <1>        -0.031304 
     19 C          -0.579710    3.074946   -1.017813 C.ar      1 <1>        -0.049682 
     20 O           0.604726   -5.312105    1.061721 O.3       1 <1>        -0.359667 
     21 H           0.766887    2.303587    1.347151 H         1 <1>         0.068219 
     22 H           2.602336   -2.435000    4.570685 H         1 <1>         0.217342 
     23 H           1.840019   -4.290780    3.231540 H         1 <1>         0.066923 
     24 H          -0.267341   -3.239620   -0.469856 H         1 <1>         0.066947 
     25 H          -1.269531   -0.125827   -2.230124 H         1 <1>         0.062503 
     26 H          -2.307597    1.181911   -4.053295 H         1 <1>         0.064339 
     27 H          -2.374550    4.821155   -4.170222 H         1 <1>         0.217313 
     28 H          -1.186882    4.929806   -2.084005 H         1 <1>         0.064339 
     29 H          -0.122880    3.637488   -0.215252 H         1 <1>         0.062503 
     30 H           0.144226   -5.506370    0.252860 H         1 <1>         0.217316 
@<TRIPOS>BOND
     1    1    2 2    
     2    1   12 1    
     3    1   13 1    
     4    2    3 1    
     5    2   21 1    
     6    3    4 2    
     7    3    5 1    
     8    5    6 1    
     9    5   11 2    
    10    6    7 1    
    11    6    8 2    
    12    7   22 1    
    13    8    9 1    
    14    8   23 1    
    15    9   10 2    
    16    9   20 1    
    17   10   11 1    
    18   10   24 1    
    19   11   12 1    
    20   13   14 1    
    21   13   19 2    
    22   14   15 2    
    23   14   25 1    
    24   15   16 1    
    25   15   26 1    
    26   16   17 1    
    27   16   18 2    
    28   17   27 1    
    29   18   19 1    
    30   18   28 1    
    31   19   29 1    
    32   20   30 1    
@<TRIPOS>SUBSTRUCTURE
     1 ****        1 TEMP              0 ****  ****    0 ROOT 
@<TRIPOS>NORMAL
@<TRIPOS>FF_PBC
FORCE_FIELD_SETUP_FEATURE Force Field Setup information
v1.0  0 0.000000 0.000000 0.000000 0.000000 0.000000 0.000000 NONE 0 0 0 0 1 0 0 0 0 0 0 0 0
