@<TRIPOS>MOLECULE
MOL000422
   31    33     1     1     0
SMALL
GASTEIGER


@<TRIPOS>ATOM
      1 C           0.566676   -0.199035    0.066890 C.2       1 <1>         0.123622 
      2 C           0.619918   -1.526520    0.275432 C.2       1 <1>         0.151805 
      3 C          -0.610978   -2.341576    0.287916 C.2       1 <1>         0.223066 
      4 C          -1.929945   -1.641196    0.092966 C.ar      1 <1>         0.084553 
      5 C          -1.840380   -0.181661   -0.104827 C.ar      1 <1>         0.099001 
      6 O          -0.597617    0.453820   -0.109861 O.3       1 <1>        -0.305131 
      7 C          -3.006984    0.570395   -0.289268 C.ar      1 <1>        -0.000529 
      8 C          -4.333552   -0.098052   -0.287385 C.ar      1 <1>         0.077519 
      9 C          -4.412183   -1.489419   -0.102353 C.ar      1 <1>        -0.001302 
     10 C          -3.179967   -2.295057    0.093902 C.ar      1 <1>         0.088401 
     11 O          -0.534385   -3.548205    0.455906 O.2       1 <1>        -0.284270 
     12 C           1.816984    0.656223    0.030140 C.ar      1 <1>         0.008296 
     13 C           1.745768    2.024746    0.599079 C.ar      1 <1>        -0.049598 
     14 C           2.871994    2.858005    0.600853 C.ar      1 <1>        -0.031302 
     15 C           4.157485    2.388517    0.035409 C.ar      1 <1>         0.072619 
     16 C           4.235518    1.090129   -0.520971 C.ar      1 <1>        -0.031302 
     17 C           3.041464    0.211295   -0.532806 C.ar      1 <1>        -0.049598 
     18 O           5.265807    3.239069    0.063723 O.3       1 <1>        -0.359832 
     19 O          -5.509448    0.632436   -0.466830 O.3       1 <1>        -0.359667 
     20 O          -3.244930   -3.677152    0.278643 O.3       1 <1>        -0.358954 
     21 O           1.805316   -2.117119    0.488471 O.3       1 <1>        -0.354461 
     22 H          -2.928901    1.642045   -0.433292 H         1 <1>         0.066947 
     23 H          -5.385831   -1.966319   -0.103842 H         1 <1>         0.066923 
     24 H           0.811719    2.384496    1.018692 H         1 <1>         0.062504 
     25 H           2.811286    3.857496    1.018189 H         1 <1>         0.064339 
     26 H           5.165782    0.725350   -0.942716 H         1 <1>         0.064339 
     27 H           3.123040   -0.770080   -0.985403 H         1 <1>         0.062504 
     28 H           6.067812    2.847515   -0.263135 H         1 <1>         0.217313 
     29 H          -5.370193    1.568097   -0.561332 H         1 <1>         0.217316 
     30 H          -4.126745   -4.030741    0.250752 H         1 <1>         0.217342 
     31 H           1.733583   -3.056634    0.631376 H         1 <1>         0.217537 
@<TRIPOS>BOND
     1    1    2 2    
     2    1    6 1    
     3    1   12 1    
     4    2    3 1    
     5    2   21 1    
     6    3    4 1    
     7    3   11 2    
     8    4    5 1    
     9    4   10 2    
    10    5    6 1    
    11    5    7 2    
    12    7    8 1    
    13    7   22 1    
    14    8    9 2    
    15    8   19 1    
    16    9   10 1    
    17    9   23 1    
    18   10   20 1    
    19   12   13 1    
    20   12   17 2    
    21   13   14 2    
    22   13   24 1    
    23   14   15 1    
    24   14   25 1    
    25   15   16 2    
    26   15   18 1    
    27   16   17 1    
    28   16   26 1    
    29   17   27 1    
    30   18   28 1    
    31   19   29 1    
    32   20   30 1    
    33   21   31 1    
@<TRIPOS>SUBSTRUCTURE
     1 ****        1 TEMP              0 ****  ****    0 ROOT 
@<TRIPOS>NORMAL
@<TRIPOS>FF_PBC
FORCE_FIELD_SETUP_FEATURE Force Field Setup information
v1.0  0 0.000000 0.000000 0.000000 0.000000 0.000000 0.000000 NONE 0 0 0 0 1 0 0 0 0 0 0 0 0
