@<TRIPOS>MOLECULE
MOL012232
   26    27     1     1     0
SMALL
GASTEIGER


@<TRIPOS>ATOM
      1 C          -0.079643    0.766790   -0.102704 C.ar      1 <1>         0.136142 
      2 C          -0.096699   -0.632365    0.011850 C.ar      1 <1>         0.110693 
      3 C           1.190657   -1.376154    0.015831 C.ar      1 <1>         0.002250 
      4 C           2.406697   -0.694301   -0.095634 C.ar      1 <1>         0.098639 
      5 C           2.416862    0.780494   -0.223223 C.ar      1 <1>         0.038158 
      6 C           1.207560    1.497241   -0.218236 C.ar      1 <1>         0.114748 
      7 O           3.602173   -1.417280   -0.083746 O.3       1 <1>        -0.273624 
      8 C           4.774140   -0.777952   -0.194740 C.2       1 <1>         0.291581 
      9 C           4.849665    0.688828   -0.339140 C.2       1 <1>         0.011033 
     10 C           3.758618    1.459091   -0.357991 C.2       1 <1>        -0.043885 
     11 O           1.211979    2.887912   -0.325109 O.3       1 <1>        -0.356675 
     12 O          -1.330228   -1.292139    0.121782 O.3       1 <1>        -0.345170 
     13 O           5.804830   -1.429856   -0.176169 O.2       1 <1>        -0.259480 
     14 C          -1.425006   -2.725653    0.105453 C.3       1 <1>         0.043138 
     15 C          -1.658855    1.988256    1.179109 C.3       1 <1>         0.043243 
     16 O          -1.281446    1.479656   -0.109384 O.3       1 <1>        -0.342941 
     17 H           1.219434   -2.454361    0.105431 H         1 <1>         0.067039 
     18 H           5.837173    1.141149   -0.433555 H         1 <1>         0.067749 
     19 H           3.838184    2.540848   -0.470251 H         1 <1>         0.062687 
     20 H           1.582441    3.288811    0.453265 H         1 <1>         0.217445 
     21 H          -2.491839   -2.989941    0.151460 H         1 <1>         0.052871 
     22 H          -0.922571   -3.168525    0.978792 H         1 <1>         0.052871 
     23 H          -1.004839   -3.138743   -0.824544 H         1 <1>         0.052871 
     24 H          -2.612986    2.525027    1.072958 H         1 <1>         0.052872 
     25 H          -0.901686    2.688491    1.564042 H         1 <1>         0.052872 
     26 H          -1.794514    1.163775    1.896253 H         1 <1>         0.052872 
@<TRIPOS>BOND
     1    1    2 2    
     2    1    6 1    
     3    1   16 1    
     4    2    3 1    
     5    2   12 1    
     6    3    4 2    
     7    3   17 1    
     8    4    5 1    
     9    4    7 1    
    10    5    6 2    
    11    5   10 1    
    12    6   11 1    
    13    7    8 1    
    14    8    9 1    
    15    8   13 2    
    16    9   10 2    
    17    9   18 1    
    18   10   19 1    
    19   11   20 1    
    20   12   14 1    
    21   14   21 1    
    22   14   22 1    
    23   14   23 1    
    24   16   15 1    
    25   15   24 1    
    26   15   25 1    
    27   15   26 1    
@<TRIPOS>SUBSTRUCTURE
     1 ****        1 TEMP              0 ****  ****    0 ROOT 
@<TRIPOS>NORMAL
@<TRIPOS>FF_PBC
FORCE_FIELD_SETUP_FEATURE Force Field Setup information
v1.0  0 0.000000 0.000000 0.000000 0.000000 0.000000 0.000000 NONE 0 0 0 0 1 0 0 0 0 0 0 0 0
