@<TRIPOS>MOLECULE
MOL000069
   50    49     1     1     0
SMALL
GASTEIGER


@<TRIPOS>ATOM
      1 C           9.560571    0.441082   -0.000053 C.2       1 <1>         0.259588 
      2 C           8.305455   -0.392584    0.000112 C.3       1 <1>         0.033006 
      3 C           7.015016    0.471134   -0.000080 C.3       1 <1>        -0.044061 
      4 C           5.739055   -0.414919    0.000100 C.3       1 <1>        -0.052596 
      5 C           4.449881    0.451779   -0.000101 C.3       1 <1>        -0.053045 
      6 C           3.171740   -0.431170    0.000080 C.3       1 <1>        -0.053057 
      7 C           1.883983    0.437869   -0.000131 C.3       1 <1>        -0.053057 
      8 C           0.603643   -0.442164    0.000076 C.3       1 <1>        -0.053057 
      9 C          -0.682259    0.429722   -0.000133 C.3       1 <1>        -0.053057 
     10 C          -1.964913   -0.446962    0.000086 C.3       1 <1>        -0.053057 
     11 C          -3.248598    0.428335   -0.000124 C.3       1 <1>        -0.053057 
     12 C          -4.533216   -0.445335    0.000092 C.3       1 <1>        -0.053057 
     13 C          -5.815508    0.431959   -0.000123 C.3       1 <1>        -0.053065 
     14 C          -7.100288   -0.441352    0.000089 C.3       1 <1>        -0.053306 
     15 C          -8.382403    0.435429   -0.000126 C.3       1 <1>        -0.055911 
     16 C          -9.663648   -0.438770    0.000087 C.3       1 <1>        -0.065276 
     17 O           9.537087    1.662167   -0.000314 O.2       1 <1>        -0.265177 
     18 O          10.701491   -0.251222    0.000107 O.3       1 <1>        -0.331267 
     19 H           8.322648   -1.035532    0.893968 H         1 <1>         0.036600 
     20 H           8.322662   -1.035907   -0.893471 H         1 <1>         0.036600 
     21 H           7.013396    1.116864   -0.894073 H         1 <1>         0.027004 
     22 H           7.013384    1.117244    0.893641 H         1 <1>         0.027004 
     23 H           5.743849   -1.060789    0.893649 H         1 <1>         0.026540 
     24 H           5.743866   -1.061177   -0.893164 H         1 <1>         0.026540 
     25 H           4.446022    1.097773   -0.893495 H         1 <1>         0.026529 
     26 H           4.446006    1.098163    0.893013 H         1 <1>         0.026529 
     27 H           3.175282   -1.077070    0.893556 H         1 <1>         0.026528 
     28 H           3.175303   -1.077471   -0.893103 H         1 <1>         0.026528 
     29 H           1.881346    1.083853   -0.893534 H         1 <1>         0.026528 
     30 H           1.881340    1.084279    0.892965 H         1 <1>         0.026528 
     31 H           0.605764   -1.088029    0.893526 H         1 <1>         0.026528 
     32 H           0.605767   -1.088456   -0.893064 H         1 <1>         0.026528 
     33 H          -0.683498    1.075688   -0.893528 H         1 <1>         0.026528 
     34 H          -0.683492    1.076125    0.892948 H         1 <1>         0.026528 
     35 H          -1.964528   -1.092881    0.893518 H         1 <1>         0.026528 
     36 H          -1.964534   -1.093319   -0.893026 H         1 <1>         0.026528 
     37 H          -3.248370    1.074277   -0.893536 H         1 <1>         0.026528 
     38 H          -3.248366    1.074713    0.892974 H         1 <1>         0.026528 
     39 H          -4.534127   -1.091254    0.893526 H         1 <1>         0.026528 
     40 H          -4.534128   -1.091693   -0.893022 H         1 <1>         0.026528 
     41 H          -5.814946    1.077902   -0.893543 H         1 <1>         0.026528 
     42 H          -5.814946    1.078339    0.892983 H         1 <1>         0.026528 
     43 H          -7.102200   -1.087194    0.893580 H         1 <1>         0.026520 
     44 H          -7.102198   -1.087630   -0.893082 H         1 <1>         0.026520 
     45 H          -8.387923    1.081751   -0.893730 H         1 <1>         0.026265 
     46 H          -8.387925    1.082189    0.893163 H         1 <1>         0.026265 
     47 H         -10.559883    0.201712   -0.000070 H         1 <1>         0.022978 
     48 H          -9.691688   -1.079528    0.895240 H         1 <1>         0.022978 
     49 H          -9.691687   -1.079965   -0.894750 H         1 <1>         0.022978 
     50 H          11.460814    0.321424   -0.000007 H         1 <1>         0.220208 
@<TRIPOS>BOND
     1    1    2 1    
     2    1   17 2    
     3    1   18 1    
     4    2    3 1    
     5    2   19 1    
     6    2   20 1    
     7    3    4 1    
     8    3   21 1    
     9    3   22 1    
    10    4    5 1    
    11    4   23 1    
    12    4   24 1    
    13    5    6 1    
    14    5   25 1    
    15    5   26 1    
    16    6    7 1    
    17    6   27 1    
    18    6   28 1    
    19    7    8 1    
    20    7   29 1    
    21    7   30 1    
    22    8    9 1    
    23    8   31 1    
    24    8   32 1    
    25    9   10 1    
    26    9   33 1    
    27    9   34 1    
    28   10   11 1    
    29   10   35 1    
    30   10   36 1    
    31   11   12 1    
    32   11   37 1    
    33   11   38 1    
    34   12   13 1    
    35   12   39 1    
    36   12   40 1    
    37   13   14 1    
    38   13   41 1    
    39   13   42 1    
    40   14   15 1    
    41   14   43 1    
    42   14   44 1    
    43   15   16 1    
    44   15   45 1    
    45   15   46 1    
    46   16   47 1    
    47   16   48 1    
    48   16   49 1    
    49   18   50 1    
@<TRIPOS>SUBSTRUCTURE
     1 ****        1 TEMP              0 ****  ****    0 ROOT 
@<TRIPOS>NORMAL
@<TRIPOS>FF_PBC
FORCE_FIELD_SETUP_FEATURE Force Field Setup information
v1.0  0 0.000000 0.000000 0.000000 0.000000 0.000000 0.000000 NONE 0 0 0 0 1 0 0 0 0 0 0 0 0
