@<TRIPOS>MOLECULE
MOL001999
   25    26     1     1     0
SMALL
GASTEIGER


@<TRIPOS>ATOM
      1 C          -0.012537    1.529578    0.635657 C.ar      1 <1>         0.008365 
      2 C          -1.348990    1.070012    0.190867 C.ar      1 <1>         0.096172 
      3 C           1.113278    0.693258    0.505797 C.ar      1 <1>        -0.019511 
      4 C           0.086431    2.912328    1.228777 C.2       1 <1>        -0.046363 
      5 C          -1.493966   -0.210800   -0.350974 C.ar      1 <1>         0.002080 
      6 O          -2.465435    1.899019    0.305408 O.3       1 <1>        -0.273708 
      7 C           0.957921   -0.659058   -0.077619 C.ar      1 <1>         0.106371 
      8 C          -1.032109    3.638034    1.297865 C.2       1 <1>         0.010953 
      9 C          -0.319152   -1.097017   -0.499637 C.ar      1 <1>         0.108148 
     10 C          -2.333074    3.129751    0.815559 C.2       1 <1>         0.291579 
     11 O           2.077585   -1.483667   -0.203315 O.3       1 <1>        -0.345321 
     12 O          -0.490852   -2.360251   -1.061631 O.3       1 <1>        -0.345258 
     13 O          -3.317642    3.845328    0.882462 O.2       1 <1>        -0.259480 
     14 C           2.078824   -2.606320    0.693095 C.3       1 <1>         0.043136 
     15 C           0.039184   -2.464649   -2.391950 C.3       1 <1>         0.043137 
     16 H           2.093251    1.026250    0.830207 H         1 <1>         0.065082 
     17 H           1.043893    3.292944    1.587208 H         1 <1>         0.062606 
     18 H          -2.470278   -0.559383   -0.668281 H         1 <1>         0.067037 
     19 H          -1.005226    4.642481    1.724012 H         1 <1>         0.067748 
     20 H           3.006611   -3.172769    0.528452 H         1 <1>         0.052871 
     21 H           2.054637   -2.257756    1.737063 H         1 <1>         0.052871 
     22 H           1.226040   -3.279281    0.517550 H         1 <1>         0.052871 
     23 H          -0.138974   -3.492544   -2.737762 H         1 <1>         0.052871 
     24 H          -0.472375   -1.767075   -3.074607 H         1 <1>         0.052871 
     25 H           1.122757   -2.268613   -2.414604 H         1 <1>         0.052871 
@<TRIPOS>BOND
     1    1    2 1    
     2    1    3 2    
     3    1    4 1    
     4    2    5 2    
     5    2    6 1    
     6    3    7 1    
     7    3   16 1    
     8    4    8 2    
     9    4   17 1    
    10    5    9 1    
    11    5   18 1    
    12    6   10 1    
    13    7    9 2    
    14    7   11 1    
    15    8   10 1    
    16    8   19 1    
    17    9   12 1    
    18   10   13 2    
    19   11   14 1    
    20   12   15 1    
    21   14   20 1    
    22   14   21 1    
    23   14   22 1    
    24   15   23 1    
    25   15   24 1    
    26   15   25 1    
@<TRIPOS>SUBSTRUCTURE
     1 ****        1 TEMP              0 ****  ****    0 ROOT 
@<TRIPOS>NORMAL
@<TRIPOS>FF_PBC
FORCE_FIELD_SETUP_FEATURE Force Field Setup information
v1.0  0 0.000000 0.000000 0.000000 0.000000 0.000000 0.000000 NONE 0 0 0 0 1 0 0 0 0 0 0 0 0
