@<TRIPOS>MOLECULE
MOL000602
   12    11     1     1     0
SMALL
GASTEIGER


@<TRIPOS>ATOM
      1 C          -1.927013   -0.018855   -0.000000 C.2       1 <1>         0.284191 
      2 C          -0.512000   -0.431725    0.000000 C.2       1 <1>         0.015384 
      3 O          -2.883750   -0.949651    0.000000 O.3       1 <1>        -0.327927 
      4 O          -2.212233    1.168812    0.000000 O.2       1 <1>        -0.260080 
      5 C           0.512000    0.431725    0.000000 C.2       1 <1>         0.015384 
      6 C           1.927013    0.018855   -0.000000 C.2       1 <1>         0.284191 
      7 O           2.883750    0.949651    0.000000 O.3       1 <1>        -0.327927 
      8 O           2.212233   -1.168812    0.000000 O.2       1 <1>        -0.260080 
      9 H          -0.321512   -1.504747   -0.000000 H         1 <1>         0.067896 
     10 H          -3.756607   -0.571287   -0.000000 H         1 <1>         0.220537 
     11 H           0.321512    1.504747   -0.000000 H         1 <1>         0.067896 
     12 H           3.756607    0.571287   -0.000000 H         1 <1>         0.220537 
@<TRIPOS>BOND
     1    1    2 1    
     2    1    3 1    
     3    1    4 2    
     4    2    5 2    
     5    2    9 1    
     6    3   10 1    
     7    5    6 1    
     8    5   11 1    
     9    6    7 1    
    10    6    8 2    
    11    7   12 1    
@<TRIPOS>SUBSTRUCTURE
     1 ****        1 TEMP              0 ****  ****    0 ROOT 
@<TRIPOS>NORMAL
@<TRIPOS>FF_PBC
FORCE_FIELD_SETUP_FEATURE Force Field Setup information
v1.0  0 0.000000 0.000000 0.000000 0.000000 0.000000 0.000000 NONE 0 0 0 0 1 0 0 0 0 0 0 0 0
