@<TRIPOS>MOLECULE
MOL000006
   31    33     1     1     0
SMALL
GASTEIGER


@<TRIPOS>ATOM
      1 C          -1.560116    1.069029    0.000931 C.ar      1 <1>         0.098804 
      2 C          -1.110051    2.474880    0.034619 C.ar      1 <1>         0.081945 
      3 O          -0.629361    0.027535   -0.007638 O.3       1 <1>        -0.307711 
      4 C          -2.928654    0.775141   -0.022637 C.ar      1 <1>        -0.000531 
      5 C           0.383670    2.667490    0.057847 C.2       1 <1>         0.193509 
      6 C          -2.049120    3.535632    0.043420 C.ar      1 <1>         0.088313 
      7 C           0.701548    0.220399    0.013493 C.2       1 <1>         0.093944 
      8 C          -3.930051    1.872224   -0.013899 C.ar      1 <1>         0.077519 
      9 C           1.219483    1.459374    0.044801 C.2       1 <1>         0.016919 
     10 O           0.897970    3.773698    0.086429 O.2       1 <1>        -0.287017 
     11 C          -3.498153    3.210643    0.018189 C.ar      1 <1>        -0.001303 
     12 O          -1.608156    4.859783    0.075347 O.3       1 <1>        -0.358955 
     13 C           1.547179   -1.041770   -0.000534 C.ar      1 <1>         0.008184 
     14 O          -5.298793    1.598649   -0.037053 O.3       1 <1>        -0.359667 
     15 C           0.836899   -2.347315   -0.035117 C.ar      1 <1>        -0.019772 
     16 C           2.986366   -1.065339    0.017212 C.ar      1 <1>        -0.049519 
     17 C           1.531030   -3.564938   -0.050199 C.ar      1 <1>         0.102827 
     18 C           3.720952   -2.353086    0.001293 C.ar      1 <1>        -0.028770 
     19 C           3.014405   -3.580586   -0.031711 C.ar      1 <1>         0.102222 
     20 O           0.813325   -4.761747   -0.082761 O.3       1 <1>        -0.357261 
     21 O           3.683278   -4.809373   -0.047312 O.3       1 <1>        -0.357274 
     22 H          -3.245795   -0.261293   -0.047276 H         1 <1>         0.066947 
     23 H           2.285150    1.664945    0.062779 H         1 <1>         0.068219 
     24 H          -4.238733    4.002374    0.024252 H         1 <1>         0.066923 
     25 H          -2.309449    5.501094    0.078799 H         1 <1>         0.217342 
     26 H          -5.504681    0.670804   -0.057966 H         1 <1>         0.217316 
     27 H          -0.246706   -2.380381   -0.049484 H         1 <1>         0.065074 
     28 H           3.574778   -0.158426    0.042401 H         1 <1>         0.062505 
     29 H           4.805795   -2.343956    0.015220 H         1 <1>         0.064422 
     30 H           1.397040   -5.513881   -0.090147 H         1 <1>         0.217422 
     31 H           4.631327   -4.740153   -0.033891 H         1 <1>         0.217422 
@<TRIPOS>BOND
     1    1    2 1    
     2    1    3 1    
     3    1    4 2    
     4    2    5 1    
     5    2    6 2    
     6    3    7 1    
     7    4    8 1    
     8    4   22 1    
     9    5    9 1    
    10    5   10 2    
    11    6   11 1    
    12    6   12 1    
    13    7    9 2    
    14    7   13 1    
    15    8   11 2    
    16    8   14 1    
    17    9   23 1    
    18   11   24 1    
    19   12   25 1    
    20   13   15 1    
    21   13   16 2    
    22   14   26 1    
    23   15   17 2    
    24   15   27 1    
    25   16   18 1    
    26   16   28 1    
    27   17   19 1    
    28   17   20 1    
    29   18   19 2    
    30   18   29 1    
    31   19   21 1    
    32   20   30 1    
    33   21   31 1    
@<TRIPOS>SUBSTRUCTURE
     1 ****        1 TEMP              0 ****  ****    0 ROOT 
@<TRIPOS>NORMAL
@<TRIPOS>FF_PBC
FORCE_FIELD_SETUP_FEATURE Force Field Setup information
v1.0  0 0.000000 0.000000 0.000000 0.000000 0.000000 0.000000 NONE 0 0 0 0 1 0 0 0 0 0 0 0 0
