@<TRIPOS>MOLECULE
MOL012211
   33    32     1     1     0
SMALL
GASTEIGER


@<TRIPOS>ATOM
      1 C         -10.362597    0.872205    0.041122 C.3       1 <1>        -0.045940 
      2 C          -9.713924   -0.488235    0.002363 C.2       1 <1>        -0.078894 
      3 C          -8.916065   -0.856609   -1.007101 C.2       1 <1>        -0.014792 
      4 C          -8.304983   -2.160965   -1.023703 C.1       1 <1>        -0.060589 
      5 C          -7.794152   -3.250764   -1.035179 C.1       1 <1>        -0.010158 
      6 C          -7.207719   -4.499163   -1.046164 C.1       1 <1>        -0.014502 
      7 C          -6.694403   -5.587755   -1.054015 C.1       1 <1>        -0.088104 
      8 C          -6.068132   -6.905957   -1.061598 C.3       1 <1>         0.013496 
      9 C          -4.524393   -6.765856   -1.055290 C.3       1 <1>        -0.023865 
     10 C          -3.833556   -8.108436   -1.053380 C.2       1 <1>        -0.087045 
     11 C          -2.498337   -8.210980   -1.071043 C.2       1 <1>        -0.087831 
     12 C          -1.805062   -9.552369   -1.068668 C.3       1 <1>        -0.032690 
     13 C          -0.259500   -9.406947   -1.082225 C.3       1 <1>        -0.026286 
     14 C           0.446362  -10.786188   -1.084129 C.3       1 <1>         0.044484 
     15 O           1.868219  -10.566227   -1.097717 O.3       1 <1>        -0.394997 
     16 H         -10.969022    0.989596    0.952541 H         1 <1>         0.027198 
     17 H         -11.016034    1.000028   -0.835283 H         1 <1>         0.027198 
     18 H          -9.589829    1.655887    0.029672 H         1 <1>         0.027198 
     19 H          -9.900865   -1.188578    0.818748 H         1 <1>         0.057542 
     20 H          -8.711482   -0.179407   -1.836204 H         1 <1>         0.070900 
     21 H          -6.407689   -7.455222   -0.169411 H         1 <1>         0.040065 
     22 H          -6.401981   -7.445181   -1.962004 H         1 <1>         0.040065 
     23 H          -4.213450   -6.205657   -0.158378 H         1 <1>         0.031638 
     24 H          -4.206536   -6.201253   -1.947071 H         1 <1>         0.031638 
     25 H          -4.432422   -9.020279   -1.036585 H         1 <1>         0.056924 
     26 H          -1.900334   -7.298457   -1.087432 H         1 <1>         0.056897 
     27 H          -2.114196  -10.108107   -0.168719 H         1 <1>         0.030803 
     28 H          -2.129119  -10.117784   -1.957210 H         1 <1>         0.030803 
     29 H           0.051721   -8.847997   -1.980261 H         1 <1>         0.029019 
     30 H           0.066875   -8.841988   -0.193369 H         1 <1>         0.029019 
     31 H           0.156416  -11.352231   -0.182128 H         1 <1>         0.055705 
     32 H           0.140356  -11.357762   -1.977303 H         1 <1>         0.055705 
     33 H           2.372331  -11.374658   -1.100074 H         1 <1>         0.209395 
@<TRIPOS>BOND
     1    1    2 1    
     2    1   16 1    
     3    1   17 1    
     4    1   18 1    
     5    2    3 2    
     6    2   19 1    
     7    3    4 1    
     8    3   20 1    
     9    4    5 3    
    10    5    6 1    
    11    6    7 3    
    12    7    8 1    
    13    8    9 1    
    14    8   21 1    
    15    8   22 1    
    16    9   10 1    
    17    9   23 1    
    18    9   24 1    
    19   10   11 2    
    20   10   25 1    
    21   11   12 1    
    22   11   26 1    
    23   12   13 1    
    24   12   27 1    
    25   12   28 1    
    26   13   14 1    
    27   13   29 1    
    28   13   30 1    
    29   14   15 1    
    30   14   31 1    
    31   14   32 1    
    32   15   33 1    
@<TRIPOS>SUBSTRUCTURE
     1 ****        1 TEMP              0 ****  ****    0 ROOT 
@<TRIPOS>NORMAL
@<TRIPOS>FF_PBC
FORCE_FIELD_SETUP_FEATURE Force Field Setup information
v1.0  0 0.000000 0.000000 0.000000 0.000000 0.000000 0.000000 NONE 0 0 0 0 1 0 0 0 0 0 0 0 0
