@<TRIPOS>MOLECULE
MOL012212
   58    61     1     1     0
SMALL
GASTEIGER


@<TRIPOS>ATOM
      1 C          -8.594959    0.575966    0.332729 C.ar      1 <1>        -0.000933 
      2 C          -8.469079   -0.812565    0.517724 C.ar      1 <1>         0.084401 
      3 C          -7.151444   -1.462458    0.270425 C.ar      1 <1>        -0.000161 
      4 C          -6.033243   -0.690622   -0.057395 C.ar      1 <1>         0.098813 
      5 C          -6.174144    0.771159   -0.213927 C.ar      1 <1>         0.081945 
      6 C          -7.427476    1.405749   -0.043506 C.ar      1 <1>         0.088322 
      7 O          -4.788227   -1.303892   -0.234280 O.3       1 <1>        -0.307711 
      8 C          -3.653438   -0.620979   -0.488287 C.2       1 <1>         0.093945 
      9 C          -3.674824    0.713012   -0.655172 C.2       1 <1>         0.016919 
     10 C          -4.905384    1.503548   -0.557542 C.2       1 <1>         0.193509 
     11 C          -2.379124   -1.448596   -0.564067 C.ar      1 <1>         0.008192 
     12 C          -9.750105   -2.947639    0.798987 C.3       1 <1>         0.193645 
     13 O          -7.585812    2.785980   -0.206220 O.3       1 <1>        -0.358955 
     14 C          -1.088141   -0.896231   -0.764428 C.ar      1 <1>        -0.049511 
     15 C           0.107536   -1.766393   -0.806587 C.ar      1 <1>        -0.028512 
     16 C           0.013925   -3.149754   -0.653777 C.ar      1 <1>         0.105689 
     17 C          -1.326215   -3.767559   -0.452603 C.ar      1 <1>         0.106288 
     18 C          -2.478657   -2.923198   -0.412935 C.ar      1 <1>        -0.019515 
     19 O          -4.912369    2.710571   -0.736439 O.2       1 <1>        -0.287017 
     20 O           1.205211   -3.896262   -0.696874 O.3       1 <1>        -0.345341 
     21 O          -1.435069   -5.159104   -0.308238 O.3       1 <1>        -0.345322 
     22 O          -9.941337   -3.254146   -0.595703 O.3       1 <1>        -0.340168 
     23 C         -10.152052   -4.664825   -0.837785 C.3       1 <1>         0.113017 
     24 C         -11.366897   -5.221287   -0.040163 C.3       1 <1>         0.111896 
     25 C         -11.169981   -4.911025    1.464969 C.3       1 <1>         0.114074 
     26 C         -10.981623   -3.380780    1.638235 C.3       1 <1>         0.134509 
     27 O         -12.166348   -2.653423    1.248898 O.3       1 <1>        -0.384091 
     28 O         -10.010728   -5.638974    1.921905 O.3       1 <1>        -0.386401 
     29 O         -12.596276   -4.674113   -0.559250 O.3       1 <1>        -0.386488 
     30 C         -10.352555   -4.902072   -2.356710 C.3       1 <1>         0.073015 
     31 O          -9.158276   -4.518154   -3.066613 O.3       1 <1>        -0.392366 
     32 C           1.240285   -5.313609   -0.460947 C.3       1 <1>         0.043135 
     33 C          -2.682063   -5.850616   -0.151181 C.3       1 <1>         0.043136 
     34 O          -9.585768   -1.528978    0.963342 O.3       1 <1>        -0.312385 
     35 H          -9.558406    1.050151    0.484915 H         1 <1>         0.066933 
     36 H          -7.018627   -2.532120    0.341834 H         1 <1>         0.066957 
     37 H          -2.802379    1.319455   -0.870527 H         1 <1>         0.068219 
     38 H          -8.877048   -3.476175    1.211625 H         1 <1>         0.094160 
     39 H          -6.775963    3.247768   -0.401591 H         1 <1>         0.217342 
     40 H          -0.922969    0.164534   -0.887678 H         1 <1>         0.062505 
     41 H           1.084838   -1.321685   -0.956811 H         1 <1>         0.064430 
     42 H          -3.458526   -3.357052   -0.269357 H         1 <1>         0.065082 
     43 H          -9.241491   -5.215128   -0.546398 H         1 <1>         0.064668 
     44 H         -11.393911   -6.318201   -0.156744 H         1 <1>         0.064673 
     45 H         -12.056954   -5.251494    2.027010 H         1 <1>         0.064758 
     46 H         -10.760455   -3.146343    2.694631 H         1 <1>         0.067108 
     47 H         -12.936382   -2.876748    1.761235 H         1 <1>         0.210111 
     48 H          -9.836705   -5.540099    2.853513 H         1 <1>         0.210005 
     49 H         -13.377861   -4.983014   -0.112446 H         1 <1>         0.210004 
     50 H         -11.214405   -4.306745   -2.698663 H         1 <1>         0.058370 
     51 H         -10.565751   -5.968426   -2.541905 H         1 <1>         0.058370 
     52 H          -9.229638   -4.631137   -4.009909 H         1 <1>         0.209508 
     53 H           2.288400   -5.640186   -0.521082 H         1 <1>         0.052871 
     54 H           0.861037   -5.552703    0.545428 H         1 <1>         0.052871 
     55 H           0.670008   -5.858575   -1.229217 H         1 <1>         0.052871 
     56 H          -2.447525   -6.923836   -0.087517 H         1 <1>         0.052871 
     57 H          -3.343763   -5.690519   -1.016138 H         1 <1>         0.052871 
     58 H          -3.192248   -5.550779    0.776395 H         1 <1>         0.052871 
@<TRIPOS>BOND
     1    2    1 2    
     2    1    6 1    
     3    1   35 1    
     4    2    3 1    
     5   34    2 1    
     6    3    4 2    
     7    3   36 1    
     8    4    5 1    
     9    4    7 1    
    10    6    5 2    
    11    5   10 1    
    12    6   13 1    
    13    7    8 1    
    14    8    9 2    
    15    8   11 1    
    16   10    9 1    
    17    9   37 1    
    18   10   19 2    
    19   11   14 2    
    20   11   18 1    
    21   12   22 1    
    22   12   26 1    
    23   12   34 1    
    24   12   38 1    
    25   13   39 1    
    26   14   15 1    
    27   14   40 1    
    28   15   16 2    
    29   15   41 1    
    30   16   17 1    
    31   16   20 1    
    32   17   18 2    
    33   17   21 1    
    34   18   42 1    
    35   20   32 1    
    36   21   33 1    
    37   22   23 1    
    38   23   24 1    
    39   23   30 1    
    40   23   43 1    
    41   24   25 1    
    42   24   29 1    
    43   24   44 1    
    44   25   26 1    
    45   25   28 1    
    46   25   45 1    
    47   26   27 1    
    48   26   46 1    
    49   27   47 1    
    50   28   48 1    
    51   29   49 1    
    52   30   31 1    
    53   30   50 1    
    54   30   51 1    
    55   31   52 1    
    56   32   53 1    
    57   32   54 1    
    58   32   55 1    
    59   33   56 1    
    60   33   57 1    
    61   33   58 1    
@<TRIPOS>SUBSTRUCTURE
     1 ****       12 TEMP              0 ****  ****    0 ROOT 
@<TRIPOS>NORMAL
@<TRIPOS>FF_PBC
FORCE_FIELD_SETUP_FEATURE Force Field Setup information
v1.0  0 0.000000 0.000000 0.000000 0.000000 0.000000 0.000000 NONE 0 0 0 0 1 0 0 0 0 0 0 0 0
