@<TRIPOS>MOLECULE
MOL001790
   74    78     1     1     0
SMALL
GASTEIGER


@<TRIPOS>ATOM
      1 C          -2.224610   -1.956867   -0.252172 C.ar      1 <1>         0.081945 
      2 C          -2.065254   -1.332409   -1.580875 C.ar      1 <1>         0.098813 
      3 C          -3.560115   -2.608842   -0.004497 C.2       1 <1>         0.193509 
      4 C          -1.177236   -1.921900    0.692270 C.ar      1 <1>         0.088322 
      5 O          -3.104633   -1.369835   -2.512517 O.3       1 <1>        -0.307712 
      6 C          -0.855110   -0.691939   -1.915202 C.ar      1 <1>        -0.000161 
      7 C          -4.562990   -2.505099   -1.071208 C.2       1 <1>         0.016918 
      8 O          -3.820220   -3.197314    1.032214 O.2       1 <1>        -0.287017 
      9 C           0.087094   -1.227615    0.337644 C.ar      1 <1>        -0.000933 
     10 O          -1.339790   -2.528047    1.938902 O.3       1 <1>        -0.358955 
     11 C          -4.303490   -1.914567   -2.247580 C.2       1 <1>         0.093865 
     12 C           0.242203   -0.618441   -0.918768 C.ar      1 <1>         0.084401 
     13 C          -5.343888   -1.809151   -3.345188 C.ar      1 <1>         0.005751 
     14 O           1.433495    0.050988   -1.203055 O.3       1 <1>        -0.312385 
     15 C          -5.208723   -0.707414   -4.331625 C.ar      1 <1>        -0.049674 
     16 C          -6.448812   -2.722775   -3.483835 C.ar      1 <1>        -0.049674 
     17 C           1.399026    1.372135   -1.774532 C.3       1 <1>         0.193645 
     18 C          -6.152796   -0.548596   -5.365879 C.ar      1 <1>        -0.031056 
     19 C          -7.435693   -2.531995   -4.573495 C.ar      1 <1>        -0.031056 
     20 O           2.737859    1.912708   -1.796307 O.3       1 <1>        -0.340158 
     21 C           0.390521    2.351668   -1.105932 C.3       1 <1>         0.134509 
     22 C          -7.297852   -1.480373   -5.479385 C.ar      1 <1>         0.075851 
     23 C           3.251542    2.312595   -0.503287 C.3       1 <1>         0.113377 
     24 C           0.879833    2.761083    0.306549 C.3       1 <1>         0.114074 
     25 O           0.214593    3.493653   -1.972300 O.3       1 <1>        -0.384091 
     26 O          -8.240744   -1.311472   -6.493443 O.3       1 <1>        -0.347912 
     27 C           2.314646    3.340352    0.191427 C.3       1 <1>         0.111906 
     28 C           3.660775    1.129111    0.417477 C.3       1 <1>         0.079556 
     29 O           0.802276    1.630150    1.196846 O.3       1 <1>        -0.386401 
     30 C          -9.156825   -0.227328   -6.272209 C.3       1 <1>         0.043026 
     31 O           2.328485    4.562636   -0.578190 O.3       1 <1>        -0.386488 
     32 O           4.075521    1.664333    1.691847 O.3       1 <1>        -0.346051 
     33 C           4.136135    0.701898    2.766418 C.3       1 <1>         0.187899 
     34 C           5.222856   -0.385899    2.565833 C.3       1 <1>         0.134110 
     35 O           4.445435    1.546320    3.889512 O.3       1 <1>        -0.343081 
     36 C           5.365182   -1.214374    3.871522 C.3       1 <1>         0.113972 
     37 O           4.866736   -1.255322    1.468421 O.3       1 <1>        -0.384104 
     38 C           4.563193    0.852788    5.144612 C.3       1 <1>         0.087307 
     39 C           5.643621   -0.264005    5.064476 C.3       1 <1>         0.109478 
     40 O           4.182297   -2.014976    4.066375 O.3       1 <1>        -0.386402 
     41 C           3.187434    0.383969    5.697439 C.3       1 <1>        -0.036060 
     42 O           6.956293    0.294220    4.850816 O.3       1 <1>        -0.386579 
     43 H          -0.743863   -0.258124   -2.901387 H         1 <1>         0.066957 
     44 H          -5.537717   -2.930219   -0.840244 H         1 <1>         0.068219 
     45 H           0.900853   -1.178664    1.051500 H         1 <1>         0.066933 
     46 H          -0.589415   -2.438639    2.515182 H         1 <1>         0.217342 
     47 H          -4.375741   -0.016127   -4.260129 H         1 <1>         0.062503 
     48 H          -6.578842   -3.560604   -2.808658 H         1 <1>         0.062503 
     49 H           1.111894    1.267321   -2.832178 H         1 <1>         0.094160 
     50 H          -6.042986    0.256443   -6.085240 H         1 <1>         0.064346 
     51 H          -8.275385   -3.211982   -4.670533 H         1 <1>         0.064346 
     52 H          -0.588473    1.857600   -0.999161 H         1 <1>         0.067108 
     53 H           4.187796    2.856456   -0.712464 H         1 <1>         0.064677 
     54 H           0.204611    3.540518    0.699981 H         1 <1>         0.064758 
     55 H          -0.404175    4.138726   -1.645194 H         1 <1>         0.210111 
     56 H           2.699591    3.581841    1.197401 H         1 <1>         0.064673 
     57 H           2.828136    0.436565    0.564438 H         1 <1>         0.058744 
     58 H           4.479613    0.578403   -0.069442 H         1 <1>         0.058744 
     59 H           1.082941    1.830403    2.085397 H         1 <1>         0.210005 
     60 H          -9.872220   -0.199235   -7.107702 H         1 <1>         0.052869 
     61 H          -8.626822    0.736797   -6.230050 H         1 <1>         0.052869 
     62 H          -9.715877   -0.379231   -5.335702 H         1 <1>         0.052869 
     63 H           1.800103    5.262040   -0.206776 H         1 <1>         0.210004 
     64 H           3.151348    0.228970    2.898144 H         1 <1>         0.093739 
     65 H           6.165047    0.145611    2.346527 H         1 <1>         0.067095 
     66 H           6.231057   -1.889490    3.752393 H         1 <1>         0.064757 
     67 H           5.517955   -1.927594    1.294906 H         1 <1>         0.210110 
     68 H           4.923359    1.616264    5.854836 H         1 <1>         0.062075 
     69 H           5.655152   -0.846452    6.001411 H         1 <1>         0.064584 
     70 H           4.233534   -2.593180    4.821520 H         1 <1>         0.210005 
     71 H           3.308261   -0.004341    6.720545 H         1 <1>         0.025536 
     72 H           2.500481    1.244331    5.731625 H         1 <1>         0.025536 
     73 H           2.710967   -0.398731    5.094540 H         1 <1>         0.025536 
     74 H           7.242971    0.881193    5.543857 H         1 <1>         0.210002 
@<TRIPOS>BOND
     1    1    2 1    
     2    1    3 1    
     3    1    4 2    
     4    2    5 1    
     5    2    6 2    
     6    3    7 1    
     7    3    8 2    
     8    4    9 1    
     9    4   10 1    
    10    5   11 1    
    11    6   12 1    
    12    6   43 1    
    13    7   11 2    
    14    7   44 1    
    15    9   12 2    
    16    9   45 1    
    17   10   46 1    
    18   11   13 1    
    19   12   14 1    
    20   13   15 1    
    21   13   16 2    
    22   14   17 1    
    23   15   18 2    
    24   15   47 1    
    25   16   19 1    
    26   16   48 1    
    27   17   20 1    
    28   17   21 1    
    29   17   49 1    
    30   18   22 1    
    31   18   50 1    
    32   19   22 2    
    33   19   51 1    
    34   20   23 1    
    35   21   24 1    
    36   21   25 1    
    37   21   52 1    
    38   22   26 1    
    39   23   27 1    
    40   23   28 1    
    41   23   53 1    
    42   24   27 1    
    43   24   29 1    
    44   24   54 1    
    45   25   55 1    
    46   26   30 1    
    47   27   31 1    
    48   27   56 1    
    49   28   32 1    
    50   28   57 1    
    51   28   58 1    
    52   29   59 1    
    53   30   60 1    
    54   30   61 1    
    55   30   62 1    
    56   31   63 1    
    57   32   33 1    
    58   33   34 1    
    59   33   35 1    
    60   33   64 1    
    61   34   36 1    
    62   34   37 1    
    63   34   65 1    
    64   35   38 1    
    65   36   39 1    
    66   36   40 1    
    67   36   66 1    
    68   37   67 1    
    69   38   39 1    
    70   38   41 1    
    71   38   68 1    
    72   39   42 1    
    73   39   69 1    
    74   40   70 1    
    75   41   71 1    
    76   41   72 1    
    77   41   73 1    
    78   42   74 1    
@<TRIPOS>SUBSTRUCTURE
     1 ****        1 TEMP              0 ****  ****    0 ROOT 
@<TRIPOS>NORMAL
@<TRIPOS>FF_PBC
FORCE_FIELD_SETUP_FEATURE Force Field Setup information
v1.0  0 0.000000 0.000000 0.000000 0.000000 0.000000 0.000000 NONE 0 0 0 0 1 0 0 0 0 0 0 0 0
