@<TRIPOS>MOLECULE
MOL001488
   80    83     1     1     0
SMALL
GASTEIGER


@<TRIPOS>ATOM
      1 O          -2.321086    2.097210    0.204573 O.3       1 <1>        -0.391474 
      2 C           5.182742    3.724074   -0.068375 C.3       1 <1>        -0.025885 
      3 C           4.118333    4.793108   -0.435501 C.3       1 <1>        -0.031972 
      4 C           2.675545    4.220849   -0.471955 C.3       1 <1>        -0.030653 
      5 C           2.314612    3.619031    0.922998 C.3       1 <1>        -0.028547 
      6 C           6.480928    4.579976   -0.238347 C.3       1 <1>        -0.032778 
      7 C           4.873277    3.278198    1.392134 C.3       1 <1>        -0.046813 
      8 C           0.882503    2.966567    0.858836 C.3       1 <1>        -0.007820 
      9 C           4.672643    5.446820   -1.724701 C.3       1 <1>        -0.049160 
     10 C           3.431728    2.697995    1.521129 C.3       1 <1>        -0.048644 
     11 C           6.223268    5.393976   -1.546033 C.3       1 <1>        -0.049187 
     12 C           1.631721    5.306193   -0.867971 C.3       1 <1>        -0.031102 
     13 C           7.868884    3.853243   -0.093467 C.3       1 <1>        -0.040533 
     14 C           5.206364    2.485322   -1.022069 C.3       1 <1>        -0.059038 
     15 C          -0.076361    4.106875    0.560949 C.2       1 <1>        -0.064841 
     16 C           0.488042    2.336362    2.229380 C.3       1 <1>        -0.041314 
     17 C           0.268733    5.126047   -0.242327 C.2       1 <1>        -0.083874 
     18 C           0.766236    1.896771   -0.276735 C.3       1 <1>        -0.055578 
     19 C          -1.434310    4.084827    1.233472 C.3       1 <1>        -0.005079 
     20 C           8.928579    4.759974    0.618819 C.3       1 <1>        -0.049933 
     21 C          -0.977981    1.806212    2.299950 C.3       1 <1>        -0.025766 
     22 C          -1.991667    2.666312    1.485455 C.3       1 <1>         0.058951 
     23 C           8.469998    3.296725   -1.420439 C.3       1 <1>        -0.062146 
     24 C          10.271628    4.025198    0.925024 C.3       1 <1>        -0.049734 
     25 C          11.166036    4.691273    2.023621 C.3       1 <1>        -0.038944 
     26 C          12.433760    3.835496    2.411017 C.3       1 <1>        -0.043894 
     27 C          11.547897    6.139926    1.568922 C.3       1 <1>        -0.052828 
     28 C          12.713355    3.885091    3.945363 C.3       1 <1>        -0.062414 
     29 C          12.385115    2.327495    2.014781 C.3       1 <1>        -0.062414 
     30 C          12.379627    6.968598    2.583434 C.3       1 <1>        -0.065017 
     31 H           4.120149    5.584759    0.335340 H         1 <1>         0.030896 
     32 H           2.656186    3.449088   -1.249614 H         1 <1>         0.030949 
     33 H           2.261831    4.475801    1.617713 H         1 <1>         0.031195 
     34 H           6.435915    5.316542    0.582130 H         1 <1>         0.030870 
     35 H           4.961745    4.137582    2.076938 H         1 <1>         0.027078 
     36 H           5.602267    2.522322    1.723447 H         1 <1>         0.027078 
     37 H           4.346471    4.863104   -2.600785 H         1 <1>         0.026828 
     38 H           4.302865    6.477666   -1.855305 H         1 <1>         0.026828 
     39 H           3.407996    1.696224    1.076667 H         1 <1>         0.026846 
     40 H           3.251434    2.557824    2.600436 H         1 <1>         0.026846 
     41 H           6.662586    6.402053   -1.466182 H         1 <1>         0.026828 
     42 H           6.652457    4.919014   -2.438816 H         1 <1>         0.026828 
     43 H           1.975058    6.287172   -0.504507 H         1 <1>         0.031025 
     44 H           1.537613    5.374516   -1.963901 H         1 <1>         0.031025 
     45 H           7.693060    2.998444    0.578754 H         1 <1>         0.030096 
     46 H           6.003465    1.796128   -0.711895 H         1 <1>         0.023524 
     47 H           5.381519    2.773066   -2.066478 H         1 <1>         0.023524 
     48 H           4.283940    1.895489   -1.015661 H         1 <1>         0.023524 
     49 H           0.624858    3.111224    3.002432 H         1 <1>         0.027446 
     50 H           1.153316    1.493786    2.476713 H         1 <1>         0.027446 
     51 H          -0.460595    5.910053   -0.451222 H         1 <1>         0.057190 
     52 H           0.649330    2.370195   -1.262644 H         1 <1>         0.023820 
     53 H          -0.100946    1.240544   -0.156795 H         1 <1>         0.023820 
     54 H           1.643386    1.237839   -0.309995 H         1 <1>         0.023820 
     55 H          -2.178453    4.641417    0.640852 H         1 <1>         0.033510 
     56 H          -1.325978    4.597003    2.202429 H         1 <1>         0.033510 
     57 H           9.101634    5.643523   -0.015565 H         1 <1>         0.026802 
     58 H           8.517667    5.102567    1.582110 H         1 <1>         0.026802 
     59 H          -1.272426    1.794706    3.362936 H         1 <1>         0.029039 
     60 H          -1.035322    0.761064    1.957309 H         1 <1>         0.029039 
     61 H          -2.938781    2.759411    2.051059 H         1 <1>         0.059621 
     62 H           8.892055    4.113971   -2.024685 H         1 <1>         0.023250 
     63 H           7.739758    2.761833   -2.038128 H         1 <1>         0.023250 
     64 H           9.278971    2.581969   -1.209707 H         1 <1>         0.023250 
     65 H           9.984578    3.021923    1.270831 H         1 <1>         0.026810 
     66 H          10.859246    3.930433   -0.001641 H         1 <1>         0.026810 
     67 H          10.530135    4.777680    2.920709 H         1 <1>         0.030319 
     68 H          -2.738354    1.242699    0.261250 H         1 <1>         0.209789 
     69 H          13.308610    4.245358    1.877370 H         1 <1>         0.029814 
     70 H          10.631019    6.724218    1.392171 H         1 <1>         0.026538 
     71 H          12.102489    6.087093    0.616814 H         1 <1>         0.026538 
     72 H          11.909494    3.366543    4.491198 H         1 <1>         0.023242 
     73 H          12.771260    4.908076    4.336293 H         1 <1>         0.023242 
     74 H          13.665158    3.384430    4.184214 H         1 <1>         0.023242 
     75 H          13.321488    1.826007    2.307410 H         1 <1>         0.023242 
     76 H          12.279731    2.194875    0.927592 H         1 <1>         0.023242 
     77 H          11.559620    1.808506    2.525756 H         1 <1>         0.023242 
     78 H          12.508762    7.996279    2.208738 H         1 <1>         0.022986 
     79 H          13.383769    6.544342    2.726524 H         1 <1>         0.022986 
     80 H          11.858603    7.021614    3.551335 H         1 <1>         0.022986 
@<TRIPOS>BOND
     1   22    1 1    
     2    1   68 1    
     3    3    2 1    
     4    2    6 1    
     5    7    2 1    
     6    2   14 1    
     7    4    3 1    
     8    3    9 1    
     9    3   31 1    
    10    5    4 1    
    11   12    4 1    
    12    4   32 1    
    13    8    5 1    
    14    5   10 1    
    15    5   33 1    
    16   11    6 1    
    17    6   13 1    
    18    6   34 1    
    19   10    7 1    
    20    7   35 1    
    21    7   36 1    
    22   15    8 1    
    23    8   16 1    
    24    8   18 1    
    25    9   11 1    
    26    9   37 1    
    27    9   38 1    
    28   10   39 1    
    29   10   40 1    
    30   11   41 1    
    31   11   42 1    
    32   17   12 1    
    33   12   43 1    
    34   12   44 1    
    35   13   20 1    
    36   13   23 1    
    37   13   45 1    
    38   14   46 1    
    39   14   47 1    
    40   14   48 1    
    41   15   17 2    
    42   19   15 1    
    43   16   21 1    
    44   16   49 1    
    45   16   50 1    
    46   17   51 1    
    47   18   52 1    
    48   18   53 1    
    49   18   54 1    
    50   19   22 1    
    51   19   55 1    
    52   19   56 1    
    53   20   24 1    
    54   20   57 1    
    55   20   58 1    
    56   21   22 1    
    57   21   59 1    
    58   21   60 1    
    59   22   61 1    
    60   23   62 1    
    61   23   63 1    
    62   23   64 1    
    63   24   25 1    
    64   24   65 1    
    65   24   66 1    
    66   25   26 1    
    67   25   27 1    
    68   25   67 1    
    69   26   28 1    
    70   26   29 1    
    71   26   69 1    
    72   27   30 1    
    73   27   70 1    
    74   27   71 1    
    75   28   72 1    
    76   28   73 1    
    77   28   74 1    
    78   29   75 1    
    79   29   76 1    
    80   29   77 1    
    81   30   78 1    
    82   30   79 1    
    83   30   80 1    
@<TRIPOS>SUBSTRUCTURE
     1 ****        2 TEMP              0 ****  ****    0 ROOT 
@<TRIPOS>NORMAL
@<TRIPOS>FF_PBC
FORCE_FIELD_SETUP_FEATURE Force Field Setup information
v1.0  0 0.000000 0.000000 0.000000 0.000000 0.000000 0.000000 NONE 0 0 0 0 1 0 0 0 0 0 0 0 0
