@<TRIPOS>MOLECULE
MOL000098
   32    34     1     1     0
SMALL
GASTEIGER


@<TRIPOS>ATOM
      1 C          -4.390270    1.046694    0.006496 C.ar      1 <1>         0.077519 
      2 C          -4.321442    1.693611    1.336973 C.ar      1 <1>        -0.001302 
      3 C          -3.081549    1.768665    2.038180 C.ar      1 <1>         0.088401 
      4 C          -1.865348    1.190739    1.416134 C.ar      1 <1>         0.084553 
      5 C          -1.921076    0.578613    0.162899 C.ar      1 <1>         0.099001 
      6 C          -3.207801    0.500020   -0.565949 C.ar      1 <1>        -0.000529 
      7 C          -0.514794    1.226874    2.083619 C.2       1 <1>         0.223066 
      8 C           0.627190    0.630464    1.367198 C.2       1 <1>         0.151807 
      9 C           0.437112    0.058229    0.167526 C.2       1 <1>         0.123702 
     10 O          -0.772853    0.034155   -0.419432 O.3       1 <1>        -0.305130 
     11 C           1.568694   -0.584011   -0.608334 C.ar      1 <1>         0.010729 
     12 C           1.556261   -0.460498   -2.086785 C.ar      1 <1>        -0.049435 
     13 C           2.580675   -1.031379   -2.862673 C.ar      1 <1>        -0.028769 
     14 C           3.690853   -1.764904   -2.214135 C.ar      1 <1>         0.102222 
     15 C           3.716141   -1.900156   -0.798469 C.ar      1 <1>         0.102828 
     16 C           2.626978   -1.305921    0.018499 C.ar      1 <1>        -0.019688 
     17 O          -5.617140    0.987195   -0.658621 O.3       1 <1>        -0.359667 
     18 O          -2.996213    2.374651    3.293970 O.3       1 <1>        -0.358954 
     19 O           4.702627   -2.316188   -3.003210 O.3       1 <1>        -0.357274 
     20 O           1.854441    0.671560    1.906215 O.3       1 <1>        -0.354461 
     21 O           4.772167   -2.594647   -0.200317 O.3       1 <1>        -0.357261 
     22 O          -0.345130    1.730208    3.182575 O.2       1 <1>        -0.284270 
     23 H          -5.227748    2.106734    1.764976 H         1 <1>         0.066923 
     24 H          -3.230664    0.020724   -1.538141 H         1 <1>         0.066947 
     25 H           0.749022    0.075983   -2.575229 H         1 <1>         0.062506 
     26 H           2.565895   -0.938291   -3.943395 H         1 <1>         0.064422 
     27 H           2.642396   -1.435423    1.093694 H         1 <1>         0.065076 
     28 H          -5.584381    0.560836   -1.507838 H         1 <1>         0.217316 
     29 H          -3.816073    2.727830    3.620758 H         1 <1>         0.217342 
     30 H           5.357695   -2.760484   -2.473557 H         1 <1>         0.217422 
     31 H           1.872256    1.106981    2.753774 H         1 <1>         0.217537 
     32 H           4.738736   -2.596923    0.749587 H         1 <1>         0.217422 
@<TRIPOS>BOND
     1    1    2 1    
     2    1    6 2    
     3    1   17 1    
     4    2    3 2    
     5    2   23 1    
     6    3    4 1    
     7    3   18 1    
     8    4    5 2    
     9    4    7 1    
    10    5    6 1    
    11    5   10 1    
    12    6   24 1    
    13    7    8 1    
    14    7   22 2    
    15    8    9 2    
    16    8   20 1    
    17    9   10 1    
    18    9   11 1    
    19   11   12 1    
    20   11   16 2    
    21   12   13 2    
    22   12   25 1    
    23   13   14 1    
    24   13   26 1    
    25   14   15 2    
    26   14   19 1    
    27   15   16 1    
    28   15   21 1    
    29   16   27 1    
    30   17   28 1    
    31   18   29 1    
    32   19   30 1    
    33   20   31 1    
    34   21   32 1    
@<TRIPOS>SUBSTRUCTURE
     1 ****        1 TEMP              0 ****  ****    0 ROOT 
@<TRIPOS>NORMAL
@<TRIPOS>FF_PBC
FORCE_FIELD_SETUP_FEATURE Force Field Setup information
v1.0  0 0.000000 0.000000 0.000000 0.000000 0.000000 0.000000 NONE 0 0 0 0 1 0 0 0 0 0 0 0 0
