@<TRIPOS>MOLECULE
MOL012215
   12    11     1     1     0
SMALL
GASTEIGER


@<TRIPOS>ATOM
      1 O           2.847646   -0.732228    1.348390 O.3       1 <1>        -0.395016 
      2 C           4.149828   -1.177523    1.768142 C.3       1 <1>         0.043956 
      3 C           4.081102   -1.532760    3.274499 C.3       1 <1>        -0.032564 
      4 C           5.451407   -2.024395    3.809119 C.3       1 <1>        -0.063203 
      5 H           2.812802   -0.494663    0.426470 H         1 <1>         0.209395 
      6 H           4.453213   -2.068455    1.191664 H         1 <1>         0.055687 
      7 H           4.895853   -0.379649    1.610109 H         1 <1>         0.055687 
      8 H           3.763687   -0.640016    3.838677 H         1 <1>         0.028458 
      9 H           3.323315   -2.320119    3.422384 H         1 <1>         0.028458 
     10 H           5.373069   -2.269274    4.880233 H         1 <1>         0.023047 
     11 H           5.774617   -2.926215    3.266090 H         1 <1>         0.023047 
     12 H           6.216061   -1.242002    3.683423 H         1 <1>         0.023047 
@<TRIPOS>BOND
     1    1    2 1    
     2    1    5 1    
     3    2    3 1    
     4    2    6 1    
     5    2    7 1    
     6    3    4 1    
     7    3    8 1    
     8    3    9 1    
     9    4   10 1    
    10    4   11 1    
    11    4   12 1    
@<TRIPOS>SUBSTRUCTURE
     1 ****        1 TEMP              0 ****  ****    0 ROOT 
@<TRIPOS>NORMAL
@<TRIPOS>FF_PBC
FORCE_FIELD_SETUP_FEATURE Force Field Setup information
v1.0  0 0.000000 0.000000 0.000000 0.000000 0.000000 0.000000 NONE 0 0 0 0 1 0 0 0 0 0 0 0 0
