@<TRIPOS>MOLECULE
MOL001504
   61    60     1     1     0
SMALL
GASTEIGER


@<TRIPOS>ATOM
      1 O           7.348376    1.277506   -1.217685 O.3       1 <1>        -0.390994 
      2 C          -6.167328    0.858336    0.239950 C.3       1 <1>        -0.043879 
      3 C          -4.755541    1.526915    0.222415 C.3       1 <1>        -0.050451 
      4 C          -0.973726    0.442861   -0.401984 C.3       1 <1>        -0.043870 
      5 C          -3.578581    0.564202   -0.113487 C.3       1 <1>        -0.052574 
      6 C          -2.229174    1.339594   -0.157404 C.3       1 <1>        -0.050451 
      7 C          -7.256465    1.975587    0.309695 C.3       1 <1>        -0.050451 
      8 C           0.317681    1.244901   -0.044807 C.3       1 <1>        -0.050173 
      9 C          -8.721487    1.459196    0.225919 C.3       1 <1>        -0.052582 
     10 C          -9.733603    2.637848    0.141608 C.3       1 <1>        -0.050700 
     11 C          -6.307622   -0.139956    1.426460 C.3       1 <1>        -0.062415 
     12 C           1.639628    0.427880   -0.132962 C.3       1 <1>        -0.049131 
     13 C          -0.926572   -0.089995   -1.863242 C.3       1 <1>        -0.062415 
     14 C         -11.212578    2.190069   -0.065945 C.3       1 <1>        -0.046721 
     15 C           2.811929    1.182887    0.555928 C.3       1 <1>        -0.031925 
     16 C         -12.112677    3.440922   -0.278873 C.3       1 <1>        -0.062665 
     17 C         -11.753603    1.339997    1.119272 C.3       1 <1>        -0.062665 
     18 C           4.139951    0.462451    0.401995 C.2       1 <1>        -0.074398 
     19 C           4.181575   -0.962355    0.915687 C.3       1 <1>        -0.043716 
     20 C           5.200158    1.074584   -0.156276 C.2       1 <1>        -0.059963 
     21 C           6.550019    0.432372   -0.366700 C.3       1 <1>         0.062627 
     22 H          -6.300609    0.305629   -0.705358 H         1 <1>         0.029813 
     23 H          -4.744889    2.317908   -0.545839 H         1 <1>         0.026785 
     24 H          -4.578068    2.004407    1.200101 H         1 <1>         0.026785 
     25 H          -1.032346   -0.421261    0.281282 H         1 <1>         0.029813 
     26 H          -3.790764    0.084662   -1.080711 H         1 <1>         0.026545 
     27 H          -3.483922   -0.221314    0.650457 H         1 <1>         0.026545 
     28 H          -2.125877    1.838652    0.819782 H         1 <1>         0.026785 
     29 H          -2.270437    2.123996   -0.930094 H         1 <1>         0.026785 
     30 H          -7.101481    2.666967   -0.534121 H         1 <1>         0.026785 
     31 H          -7.131181    2.549181    1.241645 H         1 <1>         0.026785 
     32 H           0.223425    1.595040    0.995185 H         1 <1>         0.026794 
     33 H           0.395492    2.132236   -0.692920 H         1 <1>         0.026794 
     34 H          -8.945627    0.870827    1.125746 H         1 <1>         0.026545 
     35 H          -8.833830    0.812272   -0.659460 H         1 <1>         0.026545 
     36 H          -9.447026    3.272617   -0.712661 H         1 <1>         0.026777 
     37 H          -9.656762    3.248200    1.055931 H         1 <1>         0.026777 
     38 H          -7.263379   -0.681178    1.381625 H         1 <1>         0.023242 
     39 H          -5.522092   -0.906920    1.413323 H         1 <1>         0.023242 
     40 H          -6.250189    0.399633    2.385143 H         1 <1>         0.023242 
     41 H           1.917199    0.254726   -1.185314 H         1 <1>         0.026838 
     42 H           1.489462   -0.547951    0.355019 H         1 <1>         0.026838 
     43 H          -0.074651   -0.769525   -2.007063 H         1 <1>         0.023242 
     44 H          -1.832559   -0.659134   -2.112719 H         1 <1>         0.023242 
     45 H          -0.832827    0.743162   -2.576505 H         1 <1>         0.023242 
     46 H         -11.266222    1.578035   -0.983662 H         1 <1>         0.029548 
     47 H           2.605603    1.283177    1.633312 H         1 <1>         0.030990 
     48 H           2.852899    2.200119    0.134683 H         1 <1>         0.030990 
     49 H         -11.764683    4.026104   -1.144662 H         1 <1>         0.023233 
     50 H         -13.155387    3.143329   -0.468513 H         1 <1>         0.023233 
     51 H         -12.089562    4.089502    0.610636 H         1 <1>         0.023233 
     52 H         -12.816664    1.103733    0.963703 H         1 <1>         0.023233 
     53 H         -11.217419    0.384406    1.205358 H         1 <1>         0.023233 
     54 H         -11.654999    1.886671    2.069557 H         1 <1>         0.023233 
     55 H           5.197520   -1.309877    1.151809 H         1 <1>         0.027437 
     56 H           3.587371   -1.054079    1.837696 H         1 <1>         0.027437 
     57 H           3.755187   -1.635613    0.156543 H         1 <1>         0.027437 
     58 H           5.116062    2.108400   -0.493793 H         1 <1>         0.059410 
     59 H           6.417627   -0.554498   -0.840923 H         1 <1>         0.060126 
     60 H           7.042873    0.310848    0.612926 H         1 <1>         0.060126 
     61 H           8.217972    0.925706   -1.390811 H         1 <1>         0.209823 
@<TRIPOS>BOND
     1   21    1 1    
     2    1   61 1    
     3    3    2 1    
     4    2    7 1    
     5    2   11 1    
     6    2   22 1    
     7    5    3 1    
     8    3   23 1    
     9    3   24 1    
    10    4    6 1    
    11    8    4 1    
    12    4   13 1    
    13    4   25 1    
    14    6    5 1    
    15    5   26 1    
    16    5   27 1    
    17    6   28 1    
    18    6   29 1    
    19    7    9 1    
    20    7   30 1    
    21    7   31 1    
    22   12    8 1    
    23    8   32 1    
    24    8   33 1    
    25    9   10 1    
    26    9   34 1    
    27    9   35 1    
    28   10   14 1    
    29   10   36 1    
    30   10   37 1    
    31   11   38 1    
    32   11   39 1    
    33   11   40 1    
    34   15   12 1    
    35   12   41 1    
    36   12   42 1    
    37   13   43 1    
    38   13   44 1    
    39   13   45 1    
    40   14   16 1    
    41   14   17 1    
    42   14   46 1    
    43   18   15 1    
    44   15   47 1    
    45   15   48 1    
    46   16   49 1    
    47   16   50 1    
    48   16   51 1    
    49   17   52 1    
    50   17   53 1    
    51   17   54 1    
    52   18   19 1    
    53   20   18 2    
    54   19   55 1    
    55   19   56 1    
    56   19   57 1    
    57   20   21 1    
    58   20   58 1    
    59   21   59 1    
    60   21   60 1    
@<TRIPOS>SUBSTRUCTURE
     1 ****        2 TEMP              0 ****  ****    0 ROOT 
@<TRIPOS>NORMAL
@<TRIPOS>FF_PBC
FORCE_FIELD_SETUP_FEATURE Force Field Setup information
v1.0  0 0.000000 0.000000 0.000000 0.000000 0.000000 0.000000 NONE 0 0 0 0 1 0 0 0 0 0 0 0 0
