@<TRIPOS>MOLECULE
MOL012233
   22    23     1     1     0
SMALL
GASTEIGER


@<TRIPOS>ATOM
      1 O          -2.582900    1.725717    0.410081 O.3       1 <1>        -0.273626 
      2 O          -0.409515   -2.510705   -0.782859 O.3       1 <1>        -0.347746 
      3 O           2.117785    0.934698    1.667166 O.3       1 <1>        -0.359078 
      4 O          -3.516666    3.645728    0.959380 O.2       1 <1>        -0.259480 
      5 C          -0.195271    1.338801    1.052281 C.ar      1 <1>         0.035610 
      6 C          -1.458468    0.896706    0.418045 C.ar      1 <1>         0.098472 
      7 C           0.937758    0.498304    1.060387 C.ar      1 <1>         0.084632 
      8 C          -1.526621   -0.367064   -0.179274 C.ar      1 <1>        -0.000296 
      9 C          -0.340537   -1.255187   -0.181898 C.ar      1 <1>         0.080749 
     10 C           0.852114   -0.839003    0.420098 C.ar      1 <1>        -0.001177 
     11 C          -0.173978    2.709340    1.682195 C.2       1 <1>        -0.043969 
     12 C          -1.293948    3.435204    1.627673 C.2       1 <1>         0.011032 
     13 C          -2.523899    2.937274    0.979444 C.2       1 <1>         0.291581 
     14 C          -0.379012   -2.479468   -2.218957 C.3       1 <1>         0.043029 
     15 H          -2.450594   -0.696736   -0.639777 H         1 <1>         0.066955 
     16 H           1.708600   -1.503503    0.410787 H         1 <1>         0.066930 
     17 H           0.728500    3.087962    2.163748 H         1 <1>         0.062686 
     18 H          -1.316785    4.430354    2.072081 H         1 <1>         0.067749 
     19 H           2.819794    0.294267    1.643248 H         1 <1>         0.217340 
     20 H          -0.422613   -3.515183   -2.586880 H         1 <1>         0.052870 
     21 H           0.554176   -2.016715   -2.576608 H         1 <1>         0.052870 
     22 H          -1.239423   -1.925893   -2.625662 H         1 <1>         0.052870 
@<TRIPOS>BOND
     1    6    1 1    
     2    1   13 1    
     3    9    2 1    
     4    2   14 1    
     5    7    3 1    
     6    3   19 1    
     7   13    4 2    
     8    6    5 1    
     9    5    7 2    
    10    5   11 1    
    11    8    6 2    
    12    7   10 1    
    13    8    9 1    
    14    8   15 1    
    15    9   10 2    
    16   10   16 1    
    17   11   12 2    
    18   11   17 1    
    19   12   13 1    
    20   12   18 1    
    21   14   20 1    
    22   14   21 1    
    23   14   22 1    
@<TRIPOS>SUBSTRUCTURE
     1 ****        1 TEMP              0 ****  ****    0 ROOT 
@<TRIPOS>NORMAL
@<TRIPOS>FF_PBC
FORCE_FIELD_SETUP_FEATURE Force Field Setup information
v1.0  0 0.000000 0.000000 0.000000 0.000000 0.000000 0.000000 NONE 0 0 0 0 1 0 0 0 0 0 0 0 0
