@<TRIPOS>MOLECULE
MOL012216
   47    49     1     1     0
SMALL
GASTEIGER


@<TRIPOS>ATOM
      1 O           2.749103   -0.184465    2.435385 O.2       1 <1>        -0.292005 
      2 O           0.088413   -0.860000   -4.386948 O.2       1 <1>        -0.292005 
      3 N           0.471786   -1.255718   -0.205103 N.3       1 <1>        -0.309698 
      4 C          -0.074136   -1.742552    1.085767 C.3       1 <1>         0.014876 
      5 C           0.723774   -2.253546   -1.262549 C.3       1 <1>         0.014876 
      6 C          -0.683576   -3.165720    0.945795 C.3       1 <1>        -0.037083 
      7 C          -0.587436   -3.021510   -1.605421 C.3       1 <1>        -0.037083 
      8 C          -1.504821   -3.226848   -0.364413 C.3       1 <1>        -0.050219 
      9 C           0.945277   -1.689568    2.259761 C.3       1 <1>         0.025870 
     10 C           1.350082   -1.610689   -2.533443 C.3       1 <1>         0.025870 
     11 C           1.533960   -0.309099    2.421478 C.2       1 <1>         0.164636 
     12 C           0.476065   -0.611090   -3.256581 C.2       1 <1>         0.164636 
     13 C           0.670726    0.928810    2.526904 C.ar      1 <1>         0.017446 
     14 C           0.090337    0.718020   -2.644202 C.ar      1 <1>         0.017446 
     15 C          -0.618900    0.900342    3.102173 C.ar      1 <1>        -0.051265 
     16 C          -0.847537    0.814376   -1.595653 C.ar      1 <1>        -0.051265 
     17 C           1.199155    2.211290    2.001944 C.ar      1 <1>        -0.051265 
     18 C           0.710951    1.955601   -3.175503 C.ar      1 <1>        -0.051265 
     19 C          -1.443879    2.130166    3.145544 C.ar      1 <1>        -0.061097 
     20 C          -1.154912    2.128827   -0.983453 C.ar      1 <1>        -0.061097 
     21 C           0.423323    3.376532    2.050873 C.ar      1 <1>        -0.061097 
     22 C           0.396388    3.206130   -2.612237 C.ar      1 <1>        -0.061097 
     23 C          -0.937418    3.332393    2.634091 C.ar      1 <1>        -0.061720 
     24 C          -0.551201    3.289202   -1.475652 C.ar      1 <1>        -0.061720 
     25 H           1.317630   -0.593400   -0.071574 H         1 <1>         0.122478 
     26 H          -0.909315   -1.057734    1.301907 H         1 <1>         0.046452 
     27 H           1.465394   -2.962249   -0.850668 H         1 <1>         0.046452 
     28 H           0.100929   -3.938027    0.916561 H         1 <1>         0.028034 
     29 H          -1.330975   -3.380956    1.812617 H         1 <1>         0.028034 
     30 H          -0.306746   -3.996813   -2.036839 H         1 <1>         0.028034 
     31 H          -1.168251   -2.483072   -2.370973 H         1 <1>         0.028034 
     32 H          -2.038166   -4.189875   -0.437894 H         1 <1>         0.026625 
     33 H          -2.268314   -2.431210   -0.319880 H         1 <1>         0.026625 
     34 H           0.468121   -1.996022    3.202855 H         1 <1>         0.036032 
     35 H           1.755986   -2.401971    2.042085 H         1 <1>         0.036032 
     36 H           2.282823   -1.092873   -2.265040 H         1 <1>         0.036032 
     37 H           1.610392   -2.423128   -3.231897 H         1 <1>         0.036032 
     38 H          -1.022735   -0.015326    3.517913 H         1 <1>         0.062450 
     39 H          -1.353784   -0.070009   -1.229036 H         1 <1>         0.062450 
     40 H           2.195400    2.246965    1.573092 H         1 <1>         0.062450 
     41 H           1.407429    1.893539   -4.004898 H         1 <1>         0.062450 
     42 H          -2.441688    2.096135    3.572808 H         1 <1>         0.061777 
     43 H          -1.848068    2.186624   -0.149318 H         1 <1>         0.061777 
     44 H           0.817942    4.310506    1.663167 H         1 <1>         0.061777 
     45 H           0.846288    4.111794   -3.008334 H         1 <1>         0.061777 
     46 H          -1.539204    4.234142    2.664524 H         1 <1>         0.061759 
     47 H          -0.775162    4.251971   -1.028502 H         1 <1>         0.061759 
@<TRIPOS>BOND
     1   11    1 2    
     2   12    2 2    
     3    3    4 1    
     4    5    3 1    
     5    3   25 1    
     6    4    6 1    
     7    4    9 1    
     8    4   26 1    
     9    5    7 1    
    10   10    5 1    
    11    5   27 1    
    12    8    6 1    
    13    6   28 1    
    14    6   29 1    
    15    7    8 1    
    16    7   30 1    
    17    7   31 1    
    18    8   32 1    
    19    8   33 1    
    20    9   11 1    
    21    9   34 1    
    22    9   35 1    
    23   10   12 1    
    24   10   36 1    
    25   10   37 1    
    26   11   13 1    
    27   12   14 1    
    28   13   15 2    
    29   13   17 1    
    30   14   16 2    
    31   14   18 1    
    32   15   19 1    
    33   15   38 1    
    34   16   20 1    
    35   16   39 1    
    36   17   21 2    
    37   17   40 1    
    38   18   22 2    
    39   18   41 1    
    40   19   23 2    
    41   19   42 1    
    42   20   24 2    
    43   20   43 1    
    44   21   23 1    
    45   21   44 1    
    46   22   24 1    
    47   22   45 1    
    48   23   46 1    
    49   24   47 1    
@<TRIPOS>SUBSTRUCTURE
     1 ****        3 TEMP              0 ****  ****    0 ROOT 
@<TRIPOS>NORMAL
@<TRIPOS>FF_PBC
FORCE_FIELD_SETUP_FEATURE Force Field Setup information
v1.0  0 0.000000 0.000000 0.000000 0.000000 0.000000 0.000000 NONE 0 0 0 0 1 0 0 0 0 0 0 0 0
