@<TRIPOS>MOLECULE
MOL012208
   50    52     1     1     0
SMALL
GASTEIGER


@<TRIPOS>ATOM
      1 O          -1.744955    0.364354    4.364285 O.2       1 <1>        -0.292005 
      2 O          -2.036207    2.105026   -3.391371 O.2       1 <1>        -0.292005 
      3 N          -1.382330   -0.117580    0.141616 N.3       1 <1>        -0.298646 
      4 C          -2.136358   -0.100363    1.422987 C.3       1 <1>         0.017406 
      5 C          -1.941043    0.558768   -1.059516 C.3       1 <1>         0.017406 
      6 C          -3.621395   -0.492047    1.186677 C.3       1 <1>        -0.036882 
      7 C          -3.411841    0.107911   -1.268465 C.3       1 <1>        -0.036882 
      8 C          -4.263611    0.292124    0.014435 C.3       1 <1>        -0.050206 
      9 C          -1.953035    1.232813    2.202971 C.3       1 <1>         0.026070 
     10 C          -1.776488    2.109498   -1.041513 C.3       1 <1>         0.026070 
     11 C           0.095163   -0.271366    0.207865 C.3       1 <1>        -0.012179 
     12 C          -1.749981    2.760077   -2.401950 C.2       1 <1>         0.164643 
     13 C          -2.376844    1.125999    3.649560 C.2       1 <1>         0.164643 
     14 C          -3.512063    1.916250    4.271310 C.ar      1 <1>         0.017446 
     15 C          -1.369688    4.217691   -2.570765 C.ar      1 <1>         0.017446 
     16 C          -4.581221    2.453192    3.524644 C.ar      1 <1>        -0.051265 
     17 C          -1.264875    5.103805   -1.471789 C.ar      1 <1>        -0.051265 
     18 C          -3.495914    2.131082    5.740909 C.ar      1 <1>        -0.051265 
     19 C          -1.097113    4.734656   -3.935119 C.ar      1 <1>        -0.051265 
     20 C          -5.657135    3.226084    4.189878 C.ar      1 <1>        -0.061097 
     21 C          -0.883178    6.520637   -1.682025 C.ar      1 <1>        -0.061097 
     22 C          -4.517234    2.859023    6.374399 C.ar      1 <1>        -0.061097 
     23 C          -0.738839    6.079603   -4.132250 C.ar      1 <1>        -0.061097 
     24 C          -5.628673    3.425980    5.577744 C.ar      1 <1>        -0.061720 
     25 C          -0.627447    6.996855   -2.974516 C.ar      1 <1>        -0.061720 
     26 H          -1.717634   -0.894737    2.065929 H         1 <1>         0.046663 
     27 H          -1.367727    0.189859   -1.927091 H         1 <1>         0.046663 
     28 H          -3.867335    0.657636   -2.107872 H         1 <1>         0.028041 
     29 H          -3.412666   -0.964688   -1.526619 H         1 <1>         0.028041 
     30 H          -4.206814   -0.351775    2.109624 H         1 <1>         0.028041 
     31 H          -3.660671   -1.563391    0.926426 H         1 <1>         0.028041 
     32 H          -4.367641    1.354393    0.267004 H         1 <1>         0.026625 
     33 H          -5.280486   -0.094730   -0.166680 H         1 <1>         0.026625 
     34 H          -2.458810    2.069328    1.716389 H         1 <1>         0.036039 
     35 H          -0.880323    1.475213    2.217529 H         1 <1>         0.036039 
     36 H          -0.830362    2.363575   -0.546284 H         1 <1>         0.036039 
     37 H          -2.595571    2.595828   -0.502669 H         1 <1>         0.036039 
     38 H           0.469512   -0.734558   -0.717471 H         1 <1>         0.039081 
     39 H           0.399782   -0.923776    1.039812 H         1 <1>         0.039081 
     40 H           0.597326    0.697591    0.336455 H         1 <1>         0.039081 
     41 H          -4.644423    2.310637    2.455121 H         1 <1>         0.062450 
     42 H          -1.461936    4.768354   -0.459938 H         1 <1>         0.062450 
     43 H          -2.684614    1.723561    6.336076 H         1 <1>         0.062450 
     44 H          -1.172117    4.070393   -4.790125 H         1 <1>         0.062450 
     45 H          -6.469581    3.638296    3.599271 H         1 <1>         0.061777 
     46 H          -0.801800    7.189123   -0.830641 H         1 <1>         0.061777 
     47 H          -4.494416    3.008687    7.449083 H         1 <1>         0.061777 
     48 H          -0.541191    6.449961   -5.133360 H         1 <1>         0.061777 
     49 H          -6.416031    3.991923    6.066688 H         1 <1>         0.061759 
     50 H          -0.348482    8.034662   -3.129166 H         1 <1>         0.061759 
@<TRIPOS>BOND
     1   13    1 2    
     2   12    2 2    
     3    3    4 1    
     4    5    3 1    
     5    3   11 1    
     6    4    6 1    
     7    4    9 1    
     8    4   26 1    
     9    5    7 1    
    10   10    5 1    
    11    5   27 1    
    12    8    6 1    
    13    6   30 1    
    14    6   31 1    
    15    7    8 1    
    16    7   28 1    
    17    7   29 1    
    18    8   32 1    
    19    8   33 1    
    20    9   13 1    
    21    9   34 1    
    22    9   35 1    
    23   10   12 1    
    24   10   36 1    
    25   10   37 1    
    26   11   38 1    
    27   11   39 1    
    28   11   40 1    
    29   12   15 1    
    30   13   14 1    
    31   14   16 2    
    32   14   18 1    
    33   15   17 2    
    34   15   19 1    
    35   16   20 1    
    36   16   41 1    
    37   17   21 1    
    38   17   42 1    
    39   18   22 2    
    40   18   43 1    
    41   19   23 2    
    42   19   44 1    
    43   20   24 2    
    44   20   45 1    
    45   21   25 2    
    46   21   46 1    
    47   22   24 1    
    48   22   47 1    
    49   23   25 1    
    50   23   48 1    
    51   24   49 1    
    52   25   50 1    
@<TRIPOS>SUBSTRUCTURE
     1 ****        3 TEMP              0 ****  ****    0 ROOT 
@<TRIPOS>NORMAL
@<TRIPOS>FF_PBC
FORCE_FIELD_SETUP_FEATURE Force Field Setup information
v1.0  0 0.000000 0.000000 0.000000 0.000000 0.000000 0.000000 NONE 0 0 0 0 1 0 0 0 0 0 0 0 0
