@<TRIPOS>MOLECULE
MOL009009
   52    55     1     1     0
SMALL
GASTEIGER


@<TRIPOS>ATOM
      1 O          -1.471906   -0.149352    0.678769 O.3       1 <1>        -0.371219 
      2 O           1.022607   -2.974039   -1.157269 O.3       1 <1>        -0.371221 
      3 O          -6.499521   -3.440030    2.971880 O.3       1 <1>        -0.355384 
      4 O          -1.711449   -4.468390   -6.816857 O.3       1 <1>        -0.357269 
      5 O          -6.261217   -1.671395    0.740839 O.3       1 <1>        -0.345252 
      6 O          -4.065001   -4.220686    4.420936 O.3       1 <1>        -0.345252 
      7 O          -1.097708   -1.602527   -6.746114 O.3       1 <1>        -0.345340 
      8 C          -0.762029   -2.351608    0.151908 C.3       1 <1>         0.020452 
      9 C          -0.802537   -1.456574   -1.094883 C.3       1 <1>         0.020451 
     10 C          -1.284216   -1.439462    1.289689 C.3       1 <1>         0.089094 
     11 C           0.376260   -1.968795   -1.961631 C.3       1 <1>         0.089016 
     12 C          -0.621164   -0.053228   -0.472214 C.3       1 <1>         0.054370 
     13 C           0.737454   -2.717901    0.223719 C.3       1 <1>         0.054370 
     14 C          -2.641703   -1.964285    1.768314 C.ar      1 <1>        -0.013507 
     15 C          -0.162858   -2.616835   -3.242738 C.ar      1 <1>        -0.015948 
     16 C          -2.741945   -2.820781    2.877589 C.ar      1 <1>        -0.023346 
     17 C          -3.868877   -1.575597    1.036662 C.ar      1 <1>        -0.023346 
     18 C          -0.368960   -1.847307   -4.400419 C.ar      1 <1>        -0.023513 
     19 C          -0.483419   -4.064193   -3.270216 C.ar      1 <1>        -0.053516 
     20 C          -5.115135   -2.053502    1.439431 C.ar      1 <1>         0.108312 
     21 C          -4.052513   -3.353513    3.318172 C.ar      1 <1>         0.108312 
     22 C          -0.905591   -2.449335   -5.642876 C.ar      1 <1>         0.105741 
     23 C          -0.982839   -4.657422   -4.435396 C.ar      1 <1>        -0.029060 
     24 C          -5.237385   -2.968979    2.601443 C.ar      1 <1>         0.132936 
     25 C          -1.208905   -3.853898   -5.665536 C.ar      1 <1>         0.102453 
     26 C          -6.701355   -0.332594    1.023667 C.3       1 <1>         0.043137 
     27 C          -5.259061   -4.862556    4.893063 C.3       1 <1>         0.043137 
     28 C          -1.732048   -2.035521   -7.959550 C.3       1 <1>         0.043136 
     29 H          -7.176922   -3.123770    2.382717 H         1 <1>         0.217502 
     30 H          -1.973373   -5.372438   -6.687666 H         1 <1>         0.217422 
     31 H          -1.353102   -3.270394   -0.003549 H         1 <1>         0.035574 
     32 H          -1.787205   -1.511997   -1.591106 H         1 <1>         0.035574 
     33 H          -0.564570   -1.361723    2.118475 H         1 <1>         0.064977 
     34 H           1.092401   -1.165051   -2.195212 H         1 <1>         0.064976 
     35 H          -0.948022    0.757085   -1.142803 H         1 <1>         0.056372 
     36 H           0.411959    0.149678   -0.149858 H         1 <1>         0.056372 
     37 H           0.929228   -3.606579    0.844211 H         1 <1>         0.056372 
     38 H           1.372389   -1.892364    0.581620 H         1 <1>         0.056372 
     39 H          -1.851729   -3.110405    3.426527 H         1 <1>         0.064768 
     40 H          -3.808496   -0.917275    0.177850 H         1 <1>         0.064768 
     41 H          -0.139308   -0.788271   -4.398009 H         1 <1>         0.064766 
     42 H          -0.333529   -4.670406   -2.382665 H         1 <1>         0.062191 
     43 H          -1.209065   -5.718537   -4.432135 H         1 <1>         0.064413 
     44 H          -7.588049   -0.122105    0.407536 H         1 <1>         0.052871 
     45 H          -6.976703   -0.234807    2.084924 H         1 <1>         0.052871 
     46 H          -5.922981    0.406991    0.781179 H         1 <1>         0.052871 
     47 H          -4.980115   -5.510230    5.737239 H         1 <1>         0.052871 
     48 H          -5.988565   -4.123574    5.256820 H         1 <1>         0.052871 
     49 H          -5.706162   -5.493194    4.109332 H         1 <1>         0.052871 
     50 H          -1.818695   -1.161246   -8.620906 H         1 <1>         0.052871 
     51 H          -1.125299   -2.794872   -8.474711 H         1 <1>         0.052871 
     52 H          -2.744205   -2.419405   -7.760632 H         1 <1>         0.052871 
@<TRIPOS>BOND
     1    1   10 1    
     2   12    1 1    
     3   11    2 1    
     4    2   13 1    
     5   24    3 1    
     6    3   29 1    
     7   25    4 1    
     8    4   30 1    
     9   20    5 1    
    10    5   26 1    
    11   21    6 1    
    12    6   27 1    
    13   22    7 1    
    14    7   28 1    
    15    9    8 1    
    16    8   10 1    
    17    8   13 1    
    18    8   31 1    
    19   11    9 1    
    20    9   12 1    
    21    9   32 1    
    22   10   14 1    
    23   10   33 1    
    24   15   11 1    
    25   11   34 1    
    26   12   35 1    
    27   12   36 1    
    28   13   37 1    
    29   13   38 1    
    30   14   16 2    
    31   14   17 1    
    32   18   15 2    
    33   15   19 1    
    34   16   21 1    
    35   16   39 1    
    36   17   20 2    
    37   17   40 1    
    38   22   18 1    
    39   18   41 1    
    40   19   23 2    
    41   19   42 1    
    42   20   24 1    
    43   21   24 2    
    44   22   25 2    
    45   23   25 1    
    46   23   43 1    
    47   26   44 1    
    48   26   45 1    
    49   26   46 1    
    50   27   47 1    
    51   27   48 1    
    52   27   49 1    
    53   28   50 1    
    54   28   51 1    
    55   28   52 1    
@<TRIPOS>SUBSTRUCTURE
     1 ****        8 TEMP              0 ****  ****    0 ROOT 
@<TRIPOS>NORMAL
@<TRIPOS>FF_PBC
FORCE_FIELD_SETUP_FEATURE Force Field Setup information
v1.0  0 0.000000 0.000000 0.000000 0.000000 0.000000 0.000000 NONE 0 0 0 0 1 0 0 0 0 0 0 0 0
