@<TRIPOS>MOLECULE
MOL001947
   36    36     1     1     0
SMALL
GASTEIGER


@<TRIPOS>ATOM
      1 O          -1.782523    0.065917   -1.218791 O.3       1 <1>        -0.336292 
      2 O           0.291491   -0.267443   -0.169695 O.3       1 <1>        -0.344587 
      3 O          -0.734419   -2.619826    0.994449 O.3       1 <1>        -0.383707 
      4 O          -3.361093   -1.014167    1.814985 O.3       1 <1>        -0.386390 
      5 O           0.557078   -2.811836   -1.686478 O.3       1 <1>        -0.389613 
      6 O          -2.471184    2.855734   -0.598693 O.3       1 <1>        -0.392366 
      7 C          -0.809008   -0.919962   -0.843319 C.3       1 <1>         0.222909 
      8 C          -1.579788   -1.755400    0.208998 C.3       1 <1>         0.139377 
      9 C          -2.213786   -0.617433    1.037941 C.3       1 <1>         0.114452 
     10 C          -2.508649    0.463622   -0.038724 C.3       1 <1>         0.113437 
     11 C          -0.383294   -1.788784   -2.060041 C.3       1 <1>         0.100819 
     12 C          -2.130676    1.896418    0.417279 C.3       1 <1>         0.073027 
     13 C           1.041894    0.662941   -0.975423 C.3       1 <1>         0.051085 
     14 C           2.069409    1.371317   -0.055353 C.3       1 <1>        -0.029598 
     15 C           3.057448    0.354022    0.578775 C.3       1 <1>        -0.053831 
     16 C           4.086200    1.064928    1.496054 C.3       1 <1>        -0.065205 
     17 H          -2.376002   -2.330478   -0.293188 H         1 <1>         0.067495 
     18 H          -1.443947   -0.256679    1.740046 H         1 <1>         0.064769 
     19 H          -3.575505    0.458735   -0.313544 H         1 <1>         0.064679 
     20 H           0.023977   -1.153113   -2.860259 H         1 <1>         0.061163 
     21 H          -1.269797   -2.289174   -2.477595 H         1 <1>         0.061163 
     22 H          -1.056644    1.956574    0.653015 H         1 <1>         0.058370 
     23 H          -2.697321    2.151614    1.326732 H         1 <1>         0.058370 
     24 H           0.381006    1.418115   -1.431211 H         1 <1>         0.056076 
     25 H           1.602733    0.154385   -1.773835 H         1 <1>         0.056076 
     26 H          -1.217788   -3.062655    1.684783 H         1 <1>         0.210126 
     27 H          -4.071816   -1.371396    1.292546 H         1 <1>         0.210005 
     28 H           1.528775    1.901661    0.745138 H         1 <1>         0.028724 
     29 H           2.633436    2.115397   -0.642279 H         1 <1>         0.028724 
     30 H           1.325383   -2.451315   -1.253420 H         1 <1>         0.209629 
     31 H           3.597314   -0.183770   -0.218359 H         1 <1>         0.026335 
     32 H           2.496775   -0.386173    1.174059 H         1 <1>         0.026335 
     33 H          -2.031046    2.673802   -1.424103 H         1 <1>         0.209508 
     34 H           4.675366    1.795069    0.919453 H         1 <1>         0.022978 
     35 H           3.571228    1.592509    2.314131 H         1 <1>         0.022978 
     36 H           4.776174    0.326842    1.935025 H         1 <1>         0.022978 
@<TRIPOS>BOND
     1    1    7 1    
     2   10    1 1    
     3    7    2 1    
     4    2   13 1    
     5    8    3 1    
     6    3   26 1    
     7    9    4 1    
     8    4   27 1    
     9   11    5 1    
    10    5   30 1    
    11   12    6 1    
    12    6   33 1    
    13    8    7 1    
    14    7   11 1    
    15    9    8 1    
    16    8   17 1    
    17   10    9 1    
    18    9   18 1    
    19   10   12 1    
    20   10   19 1    
    21   11   20 1    
    22   11   21 1    
    23   12   22 1    
    24   12   23 1    
    25   13   14 1    
    26   13   24 1    
    27   13   25 1    
    28   14   15 1    
    29   14   28 1    
    30   14   29 1    
    31   15   16 1    
    32   15   31 1    
    33   15   32 1    
    34   16   34 1    
    35   16   35 1    
    36   16   36 1    
@<TRIPOS>SUBSTRUCTURE
     1 ****        1 TEMP              0 ****  ****    0 ROOT 
@<TRIPOS>NORMAL
@<TRIPOS>FF_PBC
FORCE_FIELD_SETUP_FEATURE Force Field Setup information
v1.0  0 0.000000 0.000000 0.000000 0.000000 0.000000 0.000000 NONE 0 0 0 0 1 0 0 0 0 0 0 0 0
