@<TRIPOS>MOLECULE
MOL002881
   34    36     1     1     0
SMALL
GASTEIGER


@<TRIPOS>ATOM
      1 O          -1.419927    4.285621    4.164490 O.3       1 <1>        -0.359667 
      2 C          -1.213413    2.944954    3.829911 C.ar      1 <1>         0.077519 
      3 C          -1.374247    1.909017    4.876490 C.ar      1 <1>        -0.001303 
      4 C          -0.855311    2.558333    2.517375 C.ar      1 <1>        -0.000531 
      5 C          -0.642982    1.129288    2.192442 C.ar      1 <1>         0.098804 
      6 C          -0.797291    0.159207    3.187442 C.ar      1 <1>         0.081945 
      7 C          -1.172294    0.540494    4.570943 C.ar      1 <1>         0.088313 
      8 O          -0.289311    0.769670    0.887776 O.3       1 <1>        -0.307711 
      9 C          -0.075571   -0.498578    0.496166 C.2       1 <1>         0.093944 
     10 C          -0.195826   -1.511200    1.368369 C.2       1 <1>         0.016919 
     11 C          -0.561961   -1.268912    2.768307 C.2       1 <1>         0.193509 
     12 C           0.300340   -0.687183   -0.963731 C.ar      1 <1>         0.008184 
     13 C           0.395912    0.527612   -1.814247 C.ar      1 <1>        -0.019764 
     14 C           0.735724    0.449980   -3.169196 C.ar      1 <1>         0.103078 
     15 C           1.013024   -0.863763   -3.800299 C.ar      1 <1>         0.105440 
     16 C           0.928299   -2.032797   -3.011317 C.ar      1 <1>        -0.028520 
     17 C           0.567638   -1.944261   -1.575452 C.ar      1 <1>        -0.049512 
     18 O           0.811622    1.622231   -3.923345 O.3       1 <1>        -0.357255 
     19 O           1.350147   -0.894766   -5.162096 O.3       1 <1>        -0.345349 
     20 C           1.633107   -2.124932   -5.848722 C.3       1 <1>         0.043135 
     21 O          -0.666984   -2.201245    3.548312 O.2       1 <1>        -0.287017 
     22 O          -1.320103   -0.448660    5.546812 O.3       1 <1>        -0.358955 
     23 H          -1.300213    4.895839    3.445207 H         1 <1>         0.217316 
     24 H          -1.648963    2.219394    5.878251 H         1 <1>         0.066923 
     25 H          -0.731317    3.296716    1.733336 H         1 <1>         0.066947 
     26 H          -0.037977   -2.556105    1.119879 H         1 <1>         0.068219 
     27 H           0.201190    1.507401   -1.392867 H         1 <1>         0.065075 
     28 H           1.122387   -3.012216   -3.430303 H         1 <1>         0.064430 
     29 H           0.517829   -2.871044   -1.020534 H         1 <1>         0.062505 
     30 H           1.050694    1.433325   -4.825543 H         1 <1>         0.217422 
     31 H           1.866954   -1.878795   -6.895029 H         1 <1>         0.052871 
     32 H           2.506063   -2.631549   -5.409226 H         1 <1>         0.052871 
     33 H           0.759062   -2.794108   -5.837912 H         1 <1>         0.052871 
     34 H          -1.561121   -0.125997    6.407805 H         1 <1>         0.217342 
@<TRIPOS>BOND
     1    1    2 1    
     2    1   23 1    
     3    2    3 1    
     4    2    4 2    
     5    3    7 2    
     6    3   24 1    
     7    4    5 1    
     8    4   25 1    
     9    5    6 2    
    10    5    8 1    
    11    6    7 1    
    12    6   11 1    
    13    7   22 1    
    14    8    9 1    
    15    9   10 2    
    16    9   12 1    
    17   10   11 1    
    18   10   26 1    
    19   11   21 2    
    20   12   13 1    
    21   12   17 2    
    22   13   14 2    
    23   13   27 1    
    24   14   15 1    
    25   14   18 1    
    26   15   16 2    
    27   15   19 1    
    28   16   17 1    
    29   16   28 1    
    30   17   29 1    
    31   18   30 1    
    32   19   20 1    
    33   20   31 1    
    34   20   32 1    
    35   20   33 1    
    36   22   34 1    
@<TRIPOS>SUBSTRUCTURE
     1 ****        1 TEMP              0 ****  ****    0 ROOT 
@<TRIPOS>NORMAL
@<TRIPOS>FF_PBC
FORCE_FIELD_SETUP_FEATURE Force Field Setup information
v1.0  0 0.000000 0.000000 0.000000 0.000000 0.000000 0.000000 NONE 0 0 0 0 1 0 0 0 0 0 0 0 0
