@<TRIPOS>MOLECULE
MOL012226
   57    59     1     1     0
SMALL
GASTEIGER


@<TRIPOS>ATOM
      1 C          -4.800484   -0.479679   -0.303678 C.3       1 <1>        -0.064892 
      2 C          -3.657049    0.562318   -0.172990 C.3       1 <1>        -0.049228 
      3 C          -2.896689    0.422725    1.170585 C.3       1 <1>         0.005583 
      4 C          -1.741199    1.393735    1.253570 C.2       1 <1>         0.133671 
      5 C          -1.037694    1.557645    2.578082 C.3       1 <1>         0.009797 
      6 C          -0.853464    0.207682    3.318243 C.3       1 <1>        -0.020917 
      7 C           0.127743    0.393225    4.471091 C.ar      1 <1>        -0.044095 
      8 C          -0.321815    0.576736    5.803755 C.ar      1 <1>        -0.025939 
      9 C           0.657806    0.760806    6.905491 C.ar      1 <1>         0.106228 
     10 C           2.004450    0.761202    6.591194 C.ar      1 <1>         0.110439 
     11 C           2.450867    0.580203    5.214954 C.ar      1 <1>        -0.006524 
     12 C           1.580527    0.384802    4.165604 C.ar      1 <1>        -0.052332 
     13 O           3.024536    0.925923    7.518180 O.3       1 <1>        -0.333344 
     14 C           4.219092    0.554708    6.781822 C.3       1 <1>         0.099286 
     15 C           3.962435    0.648480    5.242459 C.3       1 <1>         0.040663 
     16 C           4.443167    1.987104    4.629519 C.3       1 <1>         0.053790 
     17 O           0.213372    0.929095    8.215365 O.3       1 <1>        -0.345323 
     18 O          -1.376240    2.034343    0.283085 O.2       1 <1>        -0.297400 
     19 O           5.870444    1.919654    4.468546 O.3       1 <1>        -0.394312 
     20 C           0.211366   -0.281680    8.985153 C.3       1 <1>         0.043136 
     21 C           4.595755   -0.887098    7.170163 C.ar      1 <1>        -0.015139 
     22 C           5.870518   -1.177174    7.684374 C.ar      1 <1>        -0.023487 
     23 C           6.251556   -2.563660    8.056993 C.ar      1 <1>         0.105741 
     24 C           5.318246   -3.599784    7.886862 C.ar      1 <1>         0.102453 
     25 C           3.968339   -3.298922    7.347286 C.ar      1 <1>        -0.029059 
     26 C           3.619923   -1.991279    7.003020 C.ar      1 <1>        -0.053490 
     27 O           5.665794   -4.908863    8.232936 O.3       1 <1>        -0.357269 
     28 O           7.522149   -2.863671    8.573391 O.3       1 <1>        -0.345340 
     29 C           8.475092   -1.834856    8.883056 C.3       1 <1>         0.043136 
     30 H          -5.318431   -0.330195   -1.265659 H         1 <1>         0.022988 
     31 H          -4.398174   -1.505842   -0.278629 H         1 <1>         0.022988 
     32 H          -5.533874   -0.367114    0.511846 H         1 <1>         0.022988 
     33 H          -4.070526    1.583493   -0.236493 H         1 <1>         0.026663 
     34 H          -2.944421    0.422428   -1.003754 H         1 <1>         0.026663 
     35 H          -2.511922   -0.609212    1.235486 H         1 <1>         0.034144 
     36 H          -3.593289    0.602923    2.005974 H         1 <1>         0.034144 
     37 H          -1.590925    2.270905    3.207594 H         1 <1>         0.034470 
     38 H          -0.049188    1.993406    2.368948 H         1 <1>         0.034470 
     39 H          -0.433950   -0.554184    2.643509 H         1 <1>         0.031721 
     40 H          -1.816979   -0.165644    3.695298 H         1 <1>         0.031721 
     41 H          -1.380457    0.587932    6.031527 H         1 <1>         0.064684 
     42 H           1.947252    0.238168    3.156418 H         1 <1>         0.062392 
     43 H           5.020631    1.245571    7.081943 H         1 <1>         0.065829 
     44 H           4.394963   -0.201216    4.690549 H         1 <1>         0.040075 
     45 H           3.962382    2.121600    3.646690 H         1 <1>         0.056395 
     46 H           4.156386    2.831607    5.279366 H         1 <1>         0.056395 
     47 H           6.243317    2.683559    4.037650 H         1 <1>         0.209422 
     48 H          -0.467283   -1.025092    8.536459 H         1 <1>         0.052871 
     49 H           1.229988   -0.697069    9.051773 H         1 <1>         0.052871 
     50 H          -0.144568   -0.049868    9.999479 H         1 <1>         0.052871 
     51 H           6.580479   -0.367689    7.806010 H         1 <1>         0.064767 
     52 H           3.246954   -4.098345    7.220135 H         1 <1>         0.064413 
     53 H           2.625283   -1.798355    6.613185 H         1 <1>         0.062192 
     54 H           5.044613   -5.567100    7.941143 H         1 <1>         0.217422 
     55 H           8.782990   -1.286965    7.979355 H         1 <1>         0.052871 
     56 H           8.065014   -1.137078    9.628864 H         1 <1>         0.052871 
     57 H           9.369788   -2.308444    9.312824 H         1 <1>         0.052871 
@<TRIPOS>BOND
     1    1    2 1    
     2    1   30 1    
     3    1   31 1    
     4    1   32 1    
     5    2    3 1    
     6    2   33 1    
     7    2   34 1    
     8    3    4 1    
     9    3   35 1    
    10    3   36 1    
    11    4    5 1    
    12    4   18 2    
    13    5    6 1    
    14    5   37 1    
    15    5   38 1    
    16    6    7 1    
    17    6   39 1    
    18    6   40 1    
    19    7    8 2    
    20    7   12 1    
    21    8    9 1    
    22    8   41 1    
    23    9   10 2    
    24    9   17 1    
    25   10   11 1    
    26   10   13 1    
    27   11   12 2    
    28   11   15 1    
    29   12   42 1    
    30   13   14 1    
    31   14   15 1    
    32   14   21 1    
    33   14   43 1    
    34   15   16 1    
    35   15   44 1    
    36   16   19 1    
    37   16   45 1    
    38   16   46 1    
    39   17   20 1    
    40   19   47 1    
    41   20   48 1    
    42   20   49 1    
    43   20   50 1    
    44   21   22 2    
    45   21   26 1    
    46   22   23 1    
    47   22   51 1    
    48   23   24 2    
    49   23   28 1    
    50   24   25 1    
    51   24   27 1    
    52   25   26 2    
    53   25   52 1    
    54   26   53 1    
    55   27   54 1    
    56   28   29 1    
    57   29   55 1    
    58   29   56 1    
    59   29   57 1    
@<TRIPOS>SUBSTRUCTURE
     1 ****        1 TEMP              0 ****  ****    0 ROOT 
@<TRIPOS>NORMAL
@<TRIPOS>FF_PBC
FORCE_FIELD_SETUP_FEATURE Force Field Setup information
v1.0  0 0.000000 0.000000 0.000000 0.000000 0.000000 0.000000 NONE 0 0 0 0 1 0 0 0 0 0 0 0 0
