@<TRIPOS>MOLECULE
MOL002341
   36    38     1     1     0
SMALL
GASTEIGER


@<TRIPOS>ATOM
      1 O          -0.687026   -4.540786    4.136545 O.3       1 <1>        -0.359667 
      2 O          -0.417298   -0.917859    0.923691 O.3       1 <1>        -0.335585 
      3 O           1.137737   -5.411443   -0.323138 O.3       1 <1>        -0.358967 
      4 O           1.278080   -3.305029   -1.930798 O.2       1 <1>        -0.291783 
      5 O          -1.328986    5.106937   -1.138059 O.3       1 <1>        -0.345349 
      6 O           1.575372    4.475468   -1.033282 O.3       1 <1>        -0.357262 
      7 C          -0.327803   -4.118578    2.852944 C.ar      1 <1>         0.077503 
      8 C          -0.540796   -2.700868    2.477202 C.ar      1 <1>        -0.001026 
      9 C          -0.210562   -2.259386    1.254386 C.ar      1 <1>         0.092361 
     10 C           0.213787   -4.979948    1.939334 C.ar      1 <1>        -0.001314 
     11 C           0.429457   -0.374980   -0.105880 C.3       1 <1>         0.097240 
     12 C           0.369559   -3.192203    0.259024 C.ar      1 <1>         0.077223 
     13 C           0.301028   -1.206633   -1.403665 C.3       1 <1>         0.041565 
     14 C           0.583198   -4.503346    0.585240 C.ar      1 <1>         0.087967 
     15 C           0.700677   -2.622093   -1.099201 C.2       1 <1>         0.170906 
     16 C          -0.001636    1.070948   -0.381486 C.ar      1 <1>        -0.015387 
     17 C           1.004579    2.140711   -0.591083 C.ar      1 <1>        -0.023737 
     18 C          -1.363863    1.394970   -0.436294 C.ar      1 <1>        -0.053492 
     19 C           0.608315    3.481993   -0.841099 C.ar      1 <1>         0.102776 
     20 C          -1.785791    2.789347   -0.699811 C.ar      1 <1>        -0.028818 
     21 C          -0.846096    3.811518   -0.896803 C.ar      1 <1>         0.105421 
     22 C          -0.456972    6.236364   -1.290587 C.3       1 <1>         0.043135 
     23 H          -0.514511   -5.457198    4.322637 H         1 <1>         0.217316 
     24 H           1.393589   -5.032283   -1.159969 H         1 <1>         0.217342 
     25 H           2.469071    4.201343   -0.862001 H         1 <1>         0.217422 
     26 H          -0.965768   -2.014860    3.201051 H         1 <1>         0.066932 
     27 H           0.381024   -6.022555    2.185641 H         1 <1>         0.066923 
     28 H           1.472651   -0.390796    0.253330 H         1 <1>         0.065572 
     29 H           0.945828   -0.784618   -2.190567 H         1 <1>         0.037400 
     30 H          -0.742170   -1.202773   -1.753775 H         1 <1>         0.037400 
     31 H           2.058077    1.886975   -0.552299 H         1 <1>         0.064759 
     32 H          -2.115861    0.627530   -0.285193 H         1 <1>         0.062192 
     33 H          -2.842746    3.029200   -0.741184 H         1 <1>         0.064420 
     34 H          -1.086606    7.125034   -1.440251 H         1 <1>         0.052871 
     35 H           0.150384    6.392041   -0.385797 H         1 <1>         0.052871 
     36 H           0.188634    6.120165   -2.174139 H         1 <1>         0.052871 
@<TRIPOS>BOND
     1    7    1 1    
     2    1   23 1    
     3    2    9 1    
     4   11    2 1    
     5   14    3 1    
     6    3   24 1    
     7   15    4 2    
     8   21    5 1    
     9    5   22 1    
    10   19    6 1    
    11    6   25 1    
    12    8    7 1    
    13    7   10 2    
    14    9    8 2    
    15    8   26 1    
    16    9   12 1    
    17   14   10 1    
    18   10   27 1    
    19   11   13 1    
    20   16   11 1    
    21   11   28 1    
    22   12   14 2    
    23   15   12 1    
    24   13   15 1    
    25   13   29 1    
    26   13   30 1    
    27   17   16 1    
    28   16   18 2    
    29   19   17 2    
    30   17   31 1    
    31   18   20 1    
    32   18   32 1    
    33   19   21 1    
    34   20   21 2    
    35   20   33 1    
    36   22   34 1    
    37   22   35 1    
    38   22   36 1    
@<TRIPOS>SUBSTRUCTURE
     1 ****        1 TEMP              0 ****  ****    0 ROOT 
@<TRIPOS>NORMAL
@<TRIPOS>FF_PBC
FORCE_FIELD_SETUP_FEATURE Force Field Setup information
v1.0  0 0.000000 0.000000 0.000000 0.000000 0.000000 0.000000 NONE 0 0 0 0 1 0 0 0 0 0 0 0 0
