@<TRIPOS>MOLECULE
MOL011678
   80    83     1     1     0
SMALL
GASTEIGER


@<TRIPOS>ATOM
      1 O          -0.470986   -2.009559   -0.188338 O.3       1 <1>        -0.391474 
      2 C           6.964711    0.191512   -1.017581 C.3       1 <1>        -0.025885 
      3 C           5.729911    0.966369   -1.568375 C.3       1 <1>        -0.031972 
      4 C           4.373631    0.216711   -1.456462 C.3       1 <1>        -0.030653 
      5 C           4.077378   -0.109219    0.035932 C.3       1 <1>        -0.028547 
      6 C           8.091249    1.224779   -1.401540 C.3       1 <1>        -0.032778 
      7 C           6.652624   -0.047518    0.494369 C.3       1 <1>        -0.046813 
      8 C           2.709807   -0.881273    0.149027 C.3       1 <1>        -0.007820 
      9 C           6.145579    1.381486   -2.993298 C.3       1 <1>        -0.049160 
     10 C           5.299998   -0.793869    0.724099 C.3       1 <1>        -0.048644 
     11 C           7.665916    1.660929   -2.842805 C.3       1 <1>        -0.049187 
     12 C           3.201539    1.046636   -2.065722 C.3       1 <1>        -0.031102 
     13 C           9.616456    0.840436   -1.343981 C.3       1 <1>        -0.040533 
     14 C           7.247576   -1.179897   -1.715368 C.3       1 <1>        -0.059038 
     15 C           1.654115    0.109173   -0.307587 C.2       1 <1>        -0.064841 
     16 C           2.408111   -1.287756    1.623159 C.3       1 <1>        -0.041314 
     17 C           1.884622    0.942676   -1.333014 C.2       1 <1>        -0.083874 
     18 C           2.645082   -2.141695   -0.773918 C.3       1 <1>        -0.055578 
     19 C           0.343564    0.157428    0.453542 C.3       1 <1>        -0.005079 
     20 C          10.173564    0.703288    0.109918 C.3       1 <1>        -0.049933 
     21 C           0.984520   -1.885331    1.848256 C.3       1 <1>        -0.025766 
     22 C          -0.117731   -1.224617    0.966475 C.3       1 <1>         0.058951 
     23 C          10.475187    1.921460   -2.079590 C.3       1 <1>        -0.062146 
     24 C          11.445405   -0.201467    0.225896 C.3       1 <1>        -0.049734 
     25 C          12.430178    0.195043    1.377999 C.3       1 <1>        -0.038944 
     26 C          13.713201   -0.716656    1.394795 C.3       1 <1>        -0.043894 
     27 C          11.714512    0.213929    2.774099 C.3       1 <1>        -0.052828 
     28 C          14.728772   -0.289994    2.497273 C.3       1 <1>        -0.062414 
     29 C          14.470159   -0.742648    0.031021 C.3       1 <1>        -0.062414 
     30 C          12.026296    1.495679    3.600063 C.3       1 <1>        -0.065017 
     31 H           5.617722    1.901721   -0.989538 H         1 <1>         0.030896 
     32 H           4.478916   -0.710177   -2.033683 H         1 <1>         0.030949 
     33 H           3.959660    0.857501    0.558129 H         1 <1>         0.031195 
     34 H           7.981285    2.100488   -0.738643 H         1 <1>         0.030870 
     35 H           6.628047    0.919295    1.024158 H         1 <1>         0.027078 
     36 H           7.419456   -0.675981    0.968579 H         1 <1>         0.027078 
     37 H           5.952078    0.550064   -3.691576 H         1 <1>         0.026828 
     38 H           5.592140    2.264182   -3.354844 H         1 <1>         0.026828 
     39 H           5.391024   -1.837163    0.396499 H         1 <1>         0.026846 
     40 H           5.139539   -0.816573    1.814841 H         1 <1>         0.026846 
     41 H           7.885652    2.729519   -3.007095 H         1 <1>         0.026828 
     42 H           8.193190    1.081074   -3.617256 H         1 <1>         0.026828 
     43 H           3.451014    2.117751   -2.006226 H         1 <1>         0.031025 
     44 H           3.056979    0.796373   -3.129136 H         1 <1>         0.031025 
     45 H           9.763828   -0.112406   -1.875414 H         1 <1>         0.030096 
     46 H           8.093668   -1.670663   -1.211928 H         1 <1>         0.023524 
     47 H           7.510544   -1.071779   -2.775775 H         1 <1>         0.023524 
     48 H           6.406245   -1.880791   -1.667351 H         1 <1>         0.023524 
     49 H           2.520217   -0.386220    2.248462 H         1 <1>         0.027446 
     50 H           3.137884   -2.034788    1.973103 H         1 <1>         0.027446 
     51 H           1.094033    1.620300   -1.659357 H         1 <1>         0.057190 
     52 H           3.547556   -2.758558   -0.672830 H         1 <1>         0.023820 
     53 H           1.796020   -2.791534   -0.539647 H         1 <1>         0.023820 
     54 H           2.524044   -1.866083   -1.832021 H         1 <1>         0.023820 
     55 H          -0.463628    0.578913   -0.167426 H         1 <1>         0.033510 
     56 H           0.486494    0.825913    1.317029 H         1 <1>         0.033510 
     57 H           9.399321    0.268878    0.742787 H         1 <1>         0.026802 
     58 H          10.377784    1.711250    0.504360 H         1 <1>         0.026802 
     59 H           0.735263   -1.748053    2.914821 H         1 <1>         0.029039 
     60 H           0.983585   -2.973240    1.671503 H         1 <1>         0.029039 
     61 H          -1.039827   -1.086902    1.562521 H         1 <1>         0.059621 
     62 H          10.212136    2.924593   -1.710034 H         1 <1>         0.023250 
     63 H          11.552866    1.782563   -1.917386 H         1 <1>         0.023250 
     64 H          10.323658    1.904776   -3.168266 H         1 <1>         0.023250 
     65 H          11.980868   -0.128085   -0.727751 H         1 <1>         0.026810 
     66 H          11.144211   -1.255331    0.347431 H         1 <1>         0.026810 
     67 H          12.760520    1.221015    1.141489 H         1 <1>         0.030319 
     68 H          -0.834386   -2.862276    0.029032 H         1 <1>         0.209789 
     69 H          13.402397   -1.753555    1.612742 H         1 <1>         0.029814 
     70 H          10.621176    0.191364    2.675070 H         1 <1>         0.026538 
     71 H          11.970112   -0.682964    3.359509 H         1 <1>         0.026538 
     72 H          15.029599    0.757206    2.345477 H         1 <1>         0.023242 
     73 H          14.317575   -0.400786    3.509900 H         1 <1>         0.023242 
     74 H          15.634644   -0.914517    2.461082 H         1 <1>         0.023242 
     75 H          15.442112   -1.251170    0.126542 H         1 <1>         0.023242 
     76 H          13.914747   -1.297060   -0.739447 H         1 <1>         0.023242 
     77 H          14.653567    0.283874   -0.322793 H         1 <1>         0.023242 
     78 H          11.541189    1.442144    4.588432 H         1 <1>         0.022986 
     79 H          13.104529    1.639190    3.756759 H         1 <1>         0.022986 
     80 H          11.637429    2.382778    3.075179 H         1 <1>         0.022986 
@<TRIPOS>BOND
     1   22    1 1    
     2    1   68 1    
     3    3    2 1    
     4    2    6 1    
     5    7    2 1    
     6    2   14 1    
     7    4    3 1    
     8    3    9 1    
     9    3   31 1    
    10    5    4 1    
    11   12    4 1    
    12    4   32 1    
    13    8    5 1    
    14    5   10 1    
    15    5   33 1    
    16   11    6 1    
    17    6   13 1    
    18    6   34 1    
    19   10    7 1    
    20    7   35 1    
    21    7   36 1    
    22   15    8 1    
    23    8   16 1    
    24    8   18 1    
    25    9   11 1    
    26    9   37 1    
    27    9   38 1    
    28   10   39 1    
    29   10   40 1    
    30   11   41 1    
    31   11   42 1    
    32   17   12 1    
    33   12   43 1    
    34   12   44 1    
    35   13   20 1    
    36   13   23 1    
    37   13   45 1    
    38   14   46 1    
    39   14   47 1    
    40   14   48 1    
    41   15   17 2    
    42   19   15 1    
    43   16   21 1    
    44   16   49 1    
    45   16   50 1    
    46   17   51 1    
    47   18   52 1    
    48   18   53 1    
    49   18   54 1    
    50   19   22 1    
    51   19   55 1    
    52   19   56 1    
    53   20   24 1    
    54   20   57 1    
    55   20   58 1    
    56   21   22 1    
    57   21   59 1    
    58   21   60 1    
    59   22   61 1    
    60   23   62 1    
    61   23   63 1    
    62   23   64 1    
    63   24   25 1    
    64   24   65 1    
    65   24   66 1    
    66   25   26 1    
    67   25   27 1    
    68   25   67 1    
    69   26   28 1    
    70   26   29 1    
    71   26   69 1    
    72   27   30 1    
    73   27   70 1    
    74   27   71 1    
    75   28   72 1    
    76   28   73 1    
    77   28   74 1    
    78   29   75 1    
    79   29   76 1    
    80   29   77 1    
    81   30   78 1    
    82   30   79 1    
    83   30   80 1    
@<TRIPOS>SUBSTRUCTURE
     1 ****        2 TEMP              0 ****  ****    0 ROOT 
@<TRIPOS>NORMAL
@<TRIPOS>FF_PBC
FORCE_FIELD_SETUP_FEATURE Force Field Setup information
v1.0  0 0.000000 0.000000 0.000000 0.000000 0.000000 0.000000 NONE 0 0 0 0 1 0 0 0 0 0 0 0 0
