@<TRIPOS>MOLECULE
MOL012210
   55    55     1     1     0
SMALL
GASTEIGER


@<TRIPOS>ATOM
      1 C         -10.528088    0.599771    0.125109 C.3       1 <1>        -0.045940 
      2 C          -9.919657   -0.780376    0.187413 C.2       1 <1>        -0.078894 
      3 C         -10.605709   -1.898707   -0.072426 C.2       1 <1>        -0.014792 
      4 C          -9.956806   -3.183306   -0.005140 C.1       1 <1>        -0.060589 
      5 C          -9.396856   -4.248322    0.040790 C.1       1 <1>        -0.010157 
      6 C          -8.727059   -5.453432    0.076290 C.1       1 <1>        -0.014418 
      7 C          -8.108156   -6.484898    0.088738 C.1       1 <1>        -0.085527 
      8 C          -7.304999   -7.704454    0.081164 C.3       1 <1>         0.040041 
      9 C          -6.405978   -7.782015    1.344823 C.3       1 <1>         0.090691 
     10 C          -7.160572   -8.452021    2.474301 C.2       1 <1>        -0.058567 
     11 C          -6.786906   -9.639572    2.978615 C.2       1 <1>        -0.085420 
     12 C          -7.483730  -10.336046    4.123058 C.3       1 <1>        -0.032610 
     13 C          -6.442251  -10.720014    5.210995 C.3       1 <1>        -0.026285 
     14 C          -7.100841  -11.410492    6.431312 C.3       1 <1>         0.044484 
     15 O          -6.063480  -11.789653    7.354548 O.3       1 <1>        -0.394997 
     16 O          -5.955018   -6.445448    1.663262 O.3       1 <1>        -0.340439 
     17 C          -5.304228   -6.322431    2.941563 C.3       1 <1>         0.188598 
     18 O          -6.322921   -6.433489    3.951526 O.3       1 <1>        -0.340512 
     19 C          -5.825815   -6.316828    5.297408 C.3       1 <1>         0.113005 
     20 C          -5.175896   -4.924510    5.502475 C.3       1 <1>         0.111896 
     21 C          -4.081873   -4.683698    4.432024 C.3       1 <1>         0.114062 
     22 C          -4.668323   -4.912161    3.016029 C.3       1 <1>         0.134133 
     23 C          -7.021776   -6.506973    6.266237 C.3       1 <1>         0.073015 
     24 O          -7.536737   -7.846873    6.155195 O.3       1 <1>        -0.392366 
     25 O          -4.610970   -4.861126    6.825509 O.3       1 <1>        -0.386488 
     26 O          -3.599694   -3.333499    4.572771 O.3       1 <1>        -0.386401 
     27 O          -3.612279   -4.764910    2.045951 O.3       1 <1>        -0.384104 
     28 H          -9.931316    1.232419   -0.549519 H         1 <1>         0.027198 
     29 H         -11.565486    0.582190   -0.242192 H         1 <1>         0.027198 
     30 H         -10.519268    1.047437    1.130188 H         1 <1>         0.027198 
     31 H          -8.864329   -0.854883    0.459280 H         1 <1>         0.057542 
     32 H         -11.661397   -1.875327   -0.343381 H         1 <1>         0.070900 
     33 H          -6.675987   -7.632379   -0.819716 H         1 <1>         0.042629 
     34 H          -7.952819   -8.589900   -0.013692 H         1 <1>         0.042629 
     35 H          -5.512200   -8.376446    1.090609 H         1 <1>         0.065066 
     36 H          -8.030315   -7.932226    2.876092 H         1 <1>         0.059471 
     37 H          -5.926814  -10.160050    2.557267 H         1 <1>         0.056976 
     38 H          -7.963463  -11.248525    3.735302 H         1 <1>         0.030804 
     39 H          -8.269273   -9.700461    4.559050 H         1 <1>         0.030804 
     40 H          -5.909617   -9.818369    5.554998 H         1 <1>         0.029019 
     41 H          -5.697517  -11.411434    4.783033 H         1 <1>         0.029019 
     42 H          -7.654344  -12.304005    6.095391 H         1 <1>         0.055705 
     43 H          -7.807243  -10.713620    6.913563 H         1 <1>         0.055705 
     44 H          -6.396010  -12.226648    8.133160 H         1 <1>         0.209395 
     45 H          -4.513852   -7.084708    3.049312 H         1 <1>         0.093761 
     46 H          -5.088432   -7.109389    5.507987 H         1 <1>         0.064668 
     47 H          -5.954500   -4.151179    5.382127 H         1 <1>         0.064673 
     48 H          -3.256165   -5.395767    4.604455 H         1 <1>         0.064758 
     49 H          -5.457657   -4.161404    2.837067 H         1 <1>         0.067095 
     50 H          -6.695651   -6.322358    7.303578 H         1 <1>         0.058370 
     51 H          -7.808066   -5.779496    6.002752 H         1 <1>         0.058370 
     52 H          -8.293585   -8.004897    6.711472 H         1 <1>         0.209508 
     53 H          -4.184254   -4.024373    6.988927 H         1 <1>         0.210004 
     54 H          -2.933358   -3.125832    3.923418 H         1 <1>         0.210005 
     55 H          -3.930933   -4.899592    1.157467 H         1 <1>         0.210110 
@<TRIPOS>BOND
     1    1    2 1    
     2    1   28 1    
     3    1   29 1    
     4    1   30 1    
     5    2    3 2    
     6    2   31 1    
     7    3    4 1    
     8    3   32 1    
     9    4    5 3    
    10    5    6 1    
    11    6    7 3    
    12    7    8 1    
    13    8    9 1    
    14    8   33 1    
    15    8   34 1    
    16    9   10 1    
    17    9   16 1    
    18    9   35 1    
    19   10   11 2    
    20   10   36 1    
    21   11   12 1    
    22   11   37 1    
    23   12   13 1    
    24   12   38 1    
    25   12   39 1    
    26   13   14 1    
    27   13   40 1    
    28   13   41 1    
    29   14   15 1    
    30   14   42 1    
    31   14   43 1    
    32   15   44 1    
    33   16   17 1    
    34   17   18 1    
    35   17   22 1    
    36   17   45 1    
    37   18   19 1    
    38   19   20 1    
    39   19   23 1    
    40   19   46 1    
    41   20   21 1    
    42   20   25 1    
    43   20   47 1    
    44   21   22 1    
    45   21   26 1    
    46   21   48 1    
    47   22   27 1    
    48   22   49 1    
    49   23   24 1    
    50   23   50 1    
    51   23   51 1    
    52   24   52 1    
    53   25   53 1    
    54   26   54 1    
    55   27   55 1    
@<TRIPOS>SUBSTRUCTURE
     1 ****        1 TEMP              0 ****  ****    0 ROOT 
@<TRIPOS>NORMAL
@<TRIPOS>FF_PBC
FORCE_FIELD_SETUP_FEATURE Force Field Setup information
v1.0  0 0.000000 0.000000 0.000000 0.000000 0.000000 0.000000 NONE 0 0 0 0 1 0 0 0 0 0 0 0 0
