@<TRIPOS>MOLECULE
MOL012224
   57    59     1     1     0
SMALL
GASTEIGER


@<TRIPOS>ATOM
      1 C          -5.097062   -0.363259   -0.402398 C.3       1 <1>        -0.064892 
      2 C          -3.812179    0.501884   -0.320287 C.3       1 <1>        -0.049228 
      3 C          -3.139057    0.391426    1.075153 C.3       1 <1>         0.005583 
      4 C          -1.870574    1.206596    1.150629 C.2       1 <1>         0.133671 
      5 C          -1.262596    1.469922    2.507919 C.3       1 <1>         0.009797 
      6 C          -0.844069    0.165846    3.232851 C.3       1 <1>        -0.020917 
      7 C          -0.030840    0.510253    4.487075 C.ar      1 <1>        -0.044095 
      8 C          -0.689064    0.839074    5.719226 C.ar      1 <1>        -0.025939 
      9 C           0.097926    1.193176    6.928124 C.ar      1 <1>         0.106228 
     10 C           1.480103    1.209858    6.825834 C.ar      1 <1>         0.110439 
     11 C           2.146792    0.856381    5.573581 C.ar      1 <1>        -0.006524 
     12 C           1.454065    0.511135    4.430113 C.ar      1 <1>        -0.052332 
     13 O           2.333192    1.564336    7.862793 O.3       1 <1>        -0.333344 
     14 C           3.621645    1.078654    7.410366 C.3       1 <1>         0.099286 
     15 C           3.634572    0.972215    5.849137 C.3       1 <1>         0.040663 
     16 C           4.462945   -0.230254    5.332367 C.3       1 <1>         0.053790 
     17 O          -0.553904    1.508402    8.123149 O.3       1 <1>        -0.345323 
     18 O          -1.342167    1.643313    0.140302 O.2       1 <1>        -0.297400 
     19 O           4.487748   -0.207182    3.893561 O.3       1 <1>        -0.394312 
     20 C          -0.296713    0.609342    9.215105 C.3       1 <1>         0.043136 
     21 C           4.743987    2.002078    7.895377 C.ar      1 <1>        -0.015139 
     22 C           5.962046    1.494614    8.375072 C.ar      1 <1>        -0.023487 
     23 C           7.048588    2.394821    8.828003 C.ar      1 <1>         0.105741 
     24 C           6.844322    3.817530    8.774608 C.ar      1 <1>         0.102453 
     25 C           5.546569    4.337667    8.268357 C.ar      1 <1>        -0.029059 
     26 C           4.534443    3.466726    7.848232 C.ar      1 <1>        -0.053490 
     27 O           7.839210    4.709424    9.188684 O.3       1 <1>        -0.357269 
     28 O           8.236375    1.803106    9.290363 O.3       1 <1>        -0.345340 
     29 C           9.354526    2.568751    9.766556 C.3       1 <1>         0.043136 
     30 H          -5.553565   -0.272525   -1.401073 H         1 <1>         0.022988 
     31 H          -4.856175   -1.422861   -0.223152 H         1 <1>         0.022988 
     32 H          -5.831710   -0.034455    0.349237 H         1 <1>         0.022988 
     33 H          -4.069112    1.556785   -0.516134 H         1 <1>         0.026663 
     34 H          -3.104367    0.168882   -1.098129 H         1 <1>         0.026663 
     35 H          -2.884105   -0.661786    1.268387 H         1 <1>         0.034144 
     36 H          -3.842493    0.732301    1.851317 H         1 <1>         0.034144 
     37 H          -1.979785    2.030767    3.126628 H         1 <1>         0.034470 
     38 H          -0.369542    2.101773    2.373478 H         1 <1>         0.034470 
     39 H          -0.232812   -0.450046    2.554318 H         1 <1>         0.031721 
     40 H          -1.730356   -0.420500    3.519390 H         1 <1>         0.031721 
     41 H          -1.771579    0.838850    5.778347 H         1 <1>         0.064684 
     42 H           1.982690    0.256552    3.518860 H         1 <1>         0.062392 
     43 H           3.721312    0.075510    7.857576 H         1 <1>         0.065829 
     44 H           3.979041    1.912892    5.390027 H         1 <1>         0.040075 
     45 H           4.018734   -1.171028    5.700754 H         1 <1>         0.056395 
     46 H           5.490336   -0.140231    5.725224 H         1 <1>         0.056395 
     47 H           4.993079   -0.922224    3.516503 H         1 <1>         0.209422 
     48 H          -0.884310    0.947984   10.080536 H         1 <1>         0.052871 
     49 H           0.764468    0.594661    9.504324 H         1 <1>         0.052871 
     50 H          -0.612848   -0.411138    8.949865 H         1 <1>         0.052871 
     51 H           6.127607    0.423768    8.418823 H         1 <1>         0.064767 
     52 H           5.373457    5.407173    8.222236 H         1 <1>         0.064413 
     53 H           3.592261    3.863942    7.484265 H         1 <1>         0.062192 
     54 H           7.598343    5.624764    9.104718 H         1 <1>         0.217422 
     55 H          10.140736    1.862540   10.070344 H         1 <1>         0.052871 
     56 H           9.076099    3.169907   10.644822 H         1 <1>         0.052871 
     57 H           9.760664    3.211909    8.971857 H         1 <1>         0.052871 
@<TRIPOS>BOND
     1    1    2 1    
     2    1   30 1    
     3    1   31 1    
     4    1   32 1    
     5    2    3 1    
     6    2   33 1    
     7    2   34 1    
     8    3    4 1    
     9    3   35 1    
    10    3   36 1    
    11    4    5 1    
    12    4   18 2    
    13    5    6 1    
    14    5   37 1    
    15    5   38 1    
    16    6    7 1    
    17    6   39 1    
    18    6   40 1    
    19    7    8 2    
    20    7   12 1    
    21    8    9 1    
    22    8   41 1    
    23    9   10 2    
    24    9   17 1    
    25   10   11 1    
    26   10   13 1    
    27   11   12 2    
    28   11   15 1    
    29   12   42 1    
    30   13   14 1    
    31   14   15 1    
    32   14   21 1    
    33   14   43 1    
    34   15   16 1    
    35   15   44 1    
    36   16   19 1    
    37   16   45 1    
    38   16   46 1    
    39   17   20 1    
    40   19   47 1    
    41   20   48 1    
    42   20   49 1    
    43   20   50 1    
    44   21   22 2    
    45   21   26 1    
    46   22   23 1    
    47   22   51 1    
    48   23   24 2    
    49   23   28 1    
    50   24   25 1    
    51   24   27 1    
    52   25   26 2    
    53   25   52 1    
    54   26   53 1    
    55   27   54 1    
    56   28   29 1    
    57   29   55 1    
    58   29   56 1    
    59   29   57 1    
@<TRIPOS>SUBSTRUCTURE
     1 ****        1 TEMP              0 ****  ****    0 ROOT 
@<TRIPOS>NORMAL
@<TRIPOS>FF_PBC
FORCE_FIELD_SETUP_FEATURE Force Field Setup information
v1.0  0 0.000000 0.000000 0.000000 0.000000 0.000000 0.000000 NONE 0 0 0 0 1 0 0 0 0 0 0 0 0
