@<TRIPOS>MOLECULE
MOL007930
   77    81     1     1     0
SMALL
GASTEIGER


@<TRIPOS>ATOM
      1 O           3.536046    0.339165    0.051568 O.3       1 <1>        -0.340158 
      2 O           1.923949   -1.579689    1.208490 O.3       1 <1>        -0.346051 
      3 O           0.917410   -3.687410    1.309940 O.3       1 <1>        -0.343081 
      4 O           5.264190   -2.643697   -1.353605 O.3       1 <1>        -0.386488 
      5 O           3.703842    2.605211   -0.255161 O.3       1 <1>        -0.312385 
      6 O           7.055438   -0.452943   -2.152228 O.3       1 <1>        -0.386401 
      7 O           5.898919    2.218440   -2.146935 O.3       1 <1>        -0.384091 
      8 O          -0.385790   -2.925944    3.815080 O.3       1 <1>        -0.384104 
      9 O          -2.089456   -1.038626    2.626160 O.3       1 <1>        -0.386402 
     10 O          -2.332450   -2.326620    0.048474 O.3       1 <1>        -0.386579 
     11 O          -1.184706    1.896713   -0.233744 O.3       1 <1>        -0.335585 
     12 O           0.852605    5.560804    2.408010 O.3       1 <1>        -0.358966 
     13 O          -1.777639    4.974944    2.396583 O.2       1 <1>        -0.291783 
     14 O          -6.622655   -0.701387   -2.408150 O.3       1 <1>        -0.345349 
     15 O          -6.104565   -1.428394    0.242908 O.3       1 <1>        -0.357262 
     16 C           3.653422   -1.004044   -0.453597 C.3       1 <1>         0.113377 
     17 C           5.128292   -1.303569   -0.843976 C.3       1 <1>         0.111906 
     18 C           5.667217   -0.234348   -1.834526 C.3       1 <1>         0.114074 
     19 C           5.430840    1.187862   -1.252396 C.3       1 <1>         0.134509 
     20 C           0.178675   -1.964383    2.897433 C.3       1 <1>         0.134110 
     21 C           1.358850   -2.567106    2.093855 C.3       1 <1>         0.187899 
     22 C          -0.925406   -1.503441    1.911282 C.3       1 <1>         0.113972 
     23 C          -1.330823   -2.703714    1.015680 C.3       1 <1>         0.109478 
     24 C           3.929467    1.345229   -0.900996 C.3       1 <1>         0.193645 
     25 C           3.177596   -2.005828    0.632685 C.3       1 <1>         0.079556 
     26 C          -0.077890   -3.321787    0.332629 C.3       1 <1>         0.087307 
     27 C          -0.442384   -4.612158   -0.441899 C.3       1 <1>        -0.036060 
     28 C           2.420558    2.942980    0.195069 C.ar      1 <1>         0.084385 
     29 C           1.208256    2.185906   -0.216955 C.ar      1 <1>        -0.000657 
     30 C          -0.056600    2.592295    0.206760 C.ar      1 <1>         0.092370 
     31 C           2.277843    4.042846    1.053889 C.ar      1 <1>        -0.000944 
     32 C          -2.366144    1.973866    0.581950 C.3       1 <1>         0.097240 
     33 C          -0.202394    3.755914    1.110504 C.ar      1 <1>         0.077223 
     34 C          -2.760318    3.445145    0.862590 C.3       1 <1>         0.041565 
     35 C           0.945762    4.467341    1.541969 C.ar      1 <1>         0.087976 
     36 C          -1.601928    4.128828    1.532931 C.2       1 <1>         0.170906 
     37 C          -3.483291    1.256749   -0.187980 C.ar      1 <1>        -0.015387 
     38 C          -4.278652    0.266004    0.413919 C.ar      1 <1>        -0.023737 
     39 C          -3.731399    1.614909   -1.605366 C.ar      1 <1>        -0.053492 
     40 C          -5.344479   -0.421517   -0.357174 C.ar      1 <1>         0.102776 
     41 C          -4.754702    0.992548   -2.333962 C.ar      1 <1>        -0.028818 
     42 C          -5.594412   -0.058094   -1.702450 C.ar      1 <1>         0.105421 
     43 C          -7.015058   -0.266055   -3.719689 C.3       1 <1>         0.043135 
     44 H           2.990158   -1.117256   -1.327948 H         1 <1>         0.064677 
     45 H           5.746839   -1.242163    0.065787 H         1 <1>         0.064673 
     46 H           5.115553   -0.325222   -2.784224 H         1 <1>         0.064758 
     47 H           6.001292    1.295737   -0.316118 H         1 <1>         0.067108 
     48 H           0.542711   -1.085565    3.457992 H         1 <1>         0.067095 
     49 H           2.106583   -2.919672    2.823801 H         1 <1>         0.093739 
     50 H          -0.534030   -0.693938    1.270079 H         1 <1>         0.064757 
     51 H          -1.780635   -3.468293    1.669112 H         1 <1>         0.064584 
     52 H           3.355579    1.307282   -1.841522 H         1 <1>         0.094160 
     53 H           3.923243   -2.042000    1.442794 H         1 <1>         0.058744 
     54 H           3.098965   -3.009529    0.181160 H         1 <1>         0.058744 
     55 H           0.338226   -2.598179   -0.389072 H         1 <1>         0.062075 
     56 H           0.458721   -5.019889   -0.926360 H         1 <1>         0.025536 
     57 H          -1.198667   -4.406646   -1.214974 H         1 <1>         0.025536 
     58 H          -0.837195   -5.369815    0.252234 H         1 <1>         0.025536 
     59 H           4.788528   -2.790921   -2.164916 H         1 <1>         0.210004 
     60 H           7.632989   -0.380147   -1.399259 H         1 <1>         0.210005 
     61 H           5.461217    2.217765   -2.991454 H         1 <1>         0.210111 
     62 H           0.233508   -3.254327    4.458896 H         1 <1>         0.210110 
     63 H          -1.895322   -0.352882    3.256219 H         1 <1>         0.210005 
     64 H          -2.045033   -1.637401   -0.541298 H         1 <1>         0.210002 
     65 H           1.264519    1.312007   -0.852445 H         1 <1>         0.066941 
     66 H           3.157497    4.596407    1.361140 H         1 <1>         0.066933 
     67 H          -2.160217    1.463640    1.535866 H         1 <1>         0.065572 
     68 H          -3.656312    3.481343    1.502755 H         1 <1>         0.037400 
     69 H          -2.972604    3.972848   -0.079507 H         1 <1>         0.037400 
     70 H          -4.120231   -0.001568    1.451618 H         1 <1>         0.064759 
     71 H          -3.114860    2.367880   -2.085327 H         1 <1>         0.062192 
     72 H          -0.031531    5.738618    2.716304 H         1 <1>         0.217342 
     73 H          -4.911122    1.292100   -3.362919 H         1 <1>         0.064420 
     74 H          -5.625138   -1.876675    0.930271 H         1 <1>         0.217422 
     75 H          -7.337419    0.786574   -3.699968 H         1 <1>         0.052871 
     76 H          -6.199354   -0.400446   -4.446678 H         1 <1>         0.052871 
     77 H          -7.866290   -0.885609   -4.039304 H         1 <1>         0.052871 
@<TRIPOS>BOND
     1    1   16 1    
     2   24    1 1    
     3    2   21 1    
     4   25    2 1    
     5   21    3 1    
     6    3   26 1    
     7   17    4 1    
     8    4   59 1    
     9    5   24 1    
    10   28    5 1    
    11   18    6 1    
    12    6   60 1    
    13   19    7 1    
    14    7   61 1    
    15   20    8 1    
    16    8   62 1    
    17   22    9 1    
    18    9   63 1    
    19   23   10 1    
    20   10   64 1    
    21   11   30 1    
    22   32   11 1    
    23   35   12 1    
    24   12   72 1    
    25   36   13 2    
    26   42   14 1    
    27   14   43 1    
    28   40   15 1    
    29   15   74 1    
    30   16   17 1    
    31   16   25 1    
    32   16   44 1    
    33   18   17 1    
    34   17   45 1    
    35   19   18 1    
    36   18   46 1    
    37   24   19 1    
    38   19   47 1    
    39   21   20 1    
    40   20   22 1    
    41   20   48 1    
    42   21   49 1    
    43   22   23 1    
    44   22   50 1    
    45   26   23 1    
    46   23   51 1    
    47   24   52 1    
    48   25   53 1    
    49   25   54 1    
    50   26   27 1    
    51   26   55 1    
    52   27   56 1    
    53   27   57 1    
    54   27   58 1    
    55   29   28 1    
    56   28   31 2    
    57   30   29 2    
    58   29   65 1    
    59   30   33 1    
    60   35   31 1    
    61   31   66 1    
    62   32   34 1    
    63   37   32 1    
    64   32   67 1    
    65   33   35 2    
    66   36   33 1    
    67   34   36 1    
    68   34   68 1    
    69   34   69 1    
    70   38   37 2    
    71   37   39 1    
    72   40   38 1    
    73   38   70 1    
    74   39   41 2    
    75   39   71 1    
    76   40   42 2    
    77   41   42 1    
    78   41   73 1    
    79   43   75 1    
    80   43   76 1    
    81   43   77 1    
@<TRIPOS>SUBSTRUCTURE
     1 ****        8 TEMP              0 ****  ****    0 ROOT 
@<TRIPOS>NORMAL
@<TRIPOS>FF_PBC
FORCE_FIELD_SETUP_FEATURE Force Field Setup information
v1.0  0 0.000000 0.000000 0.000000 0.000000 0.000000 0.000000 NONE 0 0 0 0 1 0 0 0 0 0 0 0 0
