@<TRIPOS>MOLECULE
MOL002000
   26    27     1     1     0
SMALL
GASTEIGER


@<TRIPOS>ATOM
      1 O          -2.643214    1.088458   -0.130770 O.3       1 <1>        -0.273624 
      2 C          -2.703141    2.310221    0.394588 C.2       1 <1>         0.291581 
      3 O          -3.750749    2.932396    0.340934 O.2       1 <1>        -0.259480 
      4 C          -1.528778    2.912963    1.033011 C.2       1 <1>         0.011033 
      5 C          -0.371261    2.251116    1.111606 C.2       1 <1>        -0.043877 
      6 C          -0.261707    0.853035    0.535648 C.ar      1 <1>         0.038397 
      7 C           0.954866   -0.025194    0.549617 C.ar      1 <1>         0.117566 
      8 C           0.890821   -1.309178   -0.057223 C.ar      1 <1>         0.133672 
      9 C          -0.354593   -1.792033   -0.696148 C.ar      1 <1>         0.110471 
     10 C          -1.481545   -0.999621   -0.700496 C.ar      1 <1>         0.002243 
     11 C          -1.460866    0.343702   -0.083366 C.ar      1 <1>         0.098647 
     12 O           2.022585   -2.131187   -0.047995 O.3       1 <1>        -0.355369 
     13 O          -0.383069   -3.053868   -1.291244 O.3       1 <1>        -0.345178 
     14 C          -0.163150   -3.032780   -2.711231 C.3       1 <1>         0.043138 
     15 O           2.188120    0.321075    1.131913 O.3       1 <1>        -0.344587 
     16 C           2.565271    1.436092    1.945715 C.3       1 <1>         0.043163 
     17 H          -1.636979    3.920195    1.438893 H         1 <1>         0.067749 
     18 H           0.420546    2.802237    1.600565 H         1 <1>         0.062687 
     19 H          -2.393287   -1.361236   -1.162014 H         1 <1>         0.067039 
     20 H           1.831130   -2.998042   -0.390863 H         1 <1>         0.217502 
     21 H          -0.193852   -4.068540   -3.080576 H         1 <1>         0.052871 
     22 H           0.823255   -2.603182   -2.946751 H         1 <1>         0.052871 
     23 H          -0.945008   -2.451769   -3.224929 H         1 <1>         0.052871 
     24 H           3.587383    1.232795    2.298174 H         1 <1>         0.052871 
     25 H           2.603456    2.363927    1.357072 H         1 <1>         0.052871 
     26 H           1.916828    1.527697    2.829958 H         1 <1>         0.052871 
@<TRIPOS>BOND
     1    1    2 1    
     2    1   11 1    
     3    2    3 2    
     4    2    4 1    
     5    4    5 2    
     6    4   17 1    
     7    5    6 1    
     8    5   18 1    
     9    6    7 1    
    10    6   11 2    
    11    7    8 2    
    12    7   15 1    
    13    8    9 1    
    14    8   12 1    
    15    9   10 2    
    16    9   13 1    
    17   10   11 1    
    18   10   19 1    
    19   12   20 1    
    20   13   14 1    
    21   14   21 1    
    22   14   22 1    
    23   14   23 1    
    24   15   16 1    
    25   16   24 1    
    26   16   25 1    
    27   16   26 1    
@<TRIPOS>SUBSTRUCTURE
     1 ****        1 TEMP              0 ****  ****    0 ROOT 
@<TRIPOS>NORMAL
@<TRIPOS>FF_PBC
FORCE_FIELD_SETUP_FEATURE Force Field Setup information
v1.0  0 0.000000 0.000000 0.000000 0.000000 0.000000 0.000000 NONE 0 0 0 0 1 0 0 0 0 0 0 0 0
