@<TRIPOS>MOLECULE
MOL012205
   48    49     1     1     0
SMALL
GASTEIGER


@<TRIPOS>ATOM
      1 C          -5.977358    0.406626   -0.004482 C.ar      1 <1>         0.102746 
      2 C          -5.888208   -1.001255   -0.015352 C.ar      1 <1>         0.102220 
      3 C          -4.552554   -1.647857   -0.009701 C.ar      1 <1>        -0.028849 
      4 C          -3.386984   -0.869557    0.005953 C.ar      1 <1>        -0.051998 
      5 C          -3.456754    0.613185    0.017111 C.ar      1 <1>        -0.022259 
      6 C          -4.737448    1.225749    0.012920 C.ar      1 <1>        -0.022249 
      7 C          -2.145085    1.375911    0.032363 C.2       1 <1>        -0.048855 
      8 C          -2.010122    2.709993    0.022597 C.2       1 <1>         0.010514 
      9 C          -0.704531    3.396815    0.037629 C.2       1 <1>         0.287331 
     10 O          -0.673718    4.738989    0.026721 O.3       1 <1>        -0.298002 
     11 O           0.322495    2.735846    0.066844 O.2       1 <1>        -0.259856 
     12 C           0.649508    5.314130   -0.099064 C.3       1 <1>         0.156970 
     13 C           0.471991    6.841204    0.114498 C.3       1 <1>         0.008748 
     14 C           1.271698    5.041376   -1.454344 C.2       1 <1>         0.292207 
     15 O           2.292964    5.608319   -1.811503 O.2       1 <1>        -0.262047 
     16 O           0.635612    4.146243   -2.226837 O.3       1 <1>        -0.313504 
     17 C           1.282795    3.881629   -3.486633 C.3       1 <1>         0.054328 
     18 C           0.468150    2.786078   -4.214520 C.3       1 <1>        -0.040979 
     19 C           1.746068    7.707973    0.081773 C.ar      1 <1>        -0.041807 
     20 C           1.610970    9.081328   -0.227322 C.ar      1 <1>        -0.055886 
     21 C           2.794631    9.971548   -0.273753 C.ar      1 <1>        -0.029148 
     22 C           4.067753    9.466578   -0.015395 C.ar      1 <1>         0.102201 
     23 C           4.239863    8.028502    0.309522 C.ar      1 <1>         0.102444 
     24 C           3.107686    7.178125    0.362889 C.ar      1 <1>        -0.026130 
     25 O           5.170172   10.321308   -0.063002 O.3       1 <1>        -0.357275 
     26 O           5.527703    7.542942    0.561919 O.3       1 <1>        -0.357268 
     27 O          -7.236508    1.016806   -0.010005 O.3       1 <1>        -0.357261 
     28 O          -7.056546   -1.770234   -0.031040 O.3       1 <1>        -0.357274 
     29 H          -4.471083   -2.729639   -0.017661 H         1 <1>         0.064421 
     30 H          -2.421329   -1.365712    0.009752 H         1 <1>         0.062425 
     31 H          -4.836872    2.301571    0.022586 H         1 <1>         0.064993 
     32 H          -1.233426    0.778593    0.052117 H         1 <1>         0.062526 
     33 H          -2.857989    3.388649    0.001049 H         1 <1>         0.067735 
     34 H           1.294153    4.916808    0.700386 H         1 <1>         0.071073 
     35 H          -0.005186    7.008663    1.092633 H         1 <1>         0.034352 
     36 H          -0.220744    7.194099   -0.666393 H         1 <1>         0.034352 
     37 H           1.313792    4.794204   -4.105799 H         1 <1>         0.056304 
     38 H           2.312467    3.516745   -3.330038 H         1 <1>         0.056304 
     39 H           0.923287    2.548707   -5.188946 H         1 <1>         0.025189 
     40 H           0.441127    1.871535   -3.601327 H         1 <1>         0.025189 
     41 H          -0.564367    3.131982   -4.376816 H         1 <1>         0.025189 
     42 H           0.632055    9.501312   -0.434232 H         1 <1>         0.062111 
     43 H           2.674417   11.023624   -0.508912 H         1 <1>         0.064412 
     44 H           3.252464    6.135515    0.611943 H         1 <1>         0.064677 
     45 H           5.975655    9.852096    0.129090 H         1 <1>         0.217422 
     46 H           5.592617    6.594709    0.569457 H         1 <1>         0.217422 
     47 H          -7.210492    1.966004   -0.009566 H         1 <1>         0.217422 
     48 H          -6.899598   -2.707294   -0.035303 H         1 <1>         0.217422 
@<TRIPOS>BOND
     1    1    2 2    
     2    1    6 1    
     3    1   27 1    
     4    2    3 1    
     5    2   28 1    
     6    3    4 2    
     7    3   29 1    
     8    4    5 1    
     9    4   30 1    
    10    5    6 2    
    11    5    7 1    
    12    6   31 1    
    13    7    8 2    
    14    7   32 1    
    15    8    9 1    
    16    8   33 1    
    17    9   10 1    
    18    9   11 2    
    19   10   12 1    
    20   12   13 1    
    21   12   14 1    
    22   12   34 1    
    23   13   19 1    
    24   13   35 1    
    25   13   36 1    
    26   14   15 2    
    27   14   16 1    
    28   16   17 1    
    29   17   18 1    
    30   17   37 1    
    31   17   38 1    
    32   18   39 1    
    33   18   40 1    
    34   18   41 1    
    35   19   20 2    
    36   19   24 1    
    37   20   21 1    
    38   20   42 1    
    39   21   22 2    
    40   21   43 1    
    41   22   23 1    
    42   22   25 1    
    43   23   24 2    
    44   23   26 1    
    45   24   44 1    
    46   25   45 1    
    47   26   46 1    
    48   27   47 1    
    49   28   48 1    
@<TRIPOS>SUBSTRUCTURE
     1 ****        1 TEMP              0 ****  ****    0 ROOT 
@<TRIPOS>NORMAL
@<TRIPOS>FF_PBC
FORCE_FIELD_SETUP_FEATURE Force Field Setup information
v1.0  0 0.000000 0.000000 0.000000 0.000000 0.000000 0.000000 NONE 0 0 0 0 1 0 0 0 0 0 0 0 0
