@<TRIPOS>MOLECULE
MOL005093
   75    79     1     1     0
SMALL
GASTEIGER


@<TRIPOS>ATOM
      1 O           3.149412    0.541784    0.900258 O.3       1 <1>        -0.340158 
      2 O           0.063709   -3.182102   -0.351760 O.3       1 <1>        -0.343081 
      3 O           1.096493   -1.166351    0.301826 O.3       1 <1>        -0.346051 
      4 O           5.208993   -2.525377    0.494990 O.3       1 <1>        -0.386488 
      5 O           7.152859   -0.532077    1.383581 O.3       1 <1>        -0.386401 
      6 O           3.611039    2.808529    1.059541 O.3       1 <1>        -0.312385 
      7 O           6.450118    2.226783    0.738007 O.3       1 <1>        -0.384091 
      8 O          -2.515150   -1.978717    0.498736 O.3       1 <1>        -0.384104 
      9 O          -2.474309   -0.118454   -1.716232 O.3       1 <1>        -0.386402 
     10 O          -0.855960   -1.533709   -3.593252 O.3       1 <1>        -0.386579 
     11 O          -1.245308    2.155866    0.745499 O.3       1 <1>        -0.307711 
     12 O           1.018594    5.479621   -2.139345 O.3       1 <1>        -0.358955 
     13 O          -1.654032    4.916211   -2.184890 O.2       1 <1>        -0.287017 
     14 O          -6.623310   -1.193267    2.086539 O.3       1 <1>        -0.345349 
     15 O          -4.503114   -0.415663    3.775207 O.3       1 <1>        -0.357255 
     16 C           3.480140   -0.760221    0.385379 C.3       1 <1>         0.113377 
     17 C           4.838580   -1.219286    0.976806 C.3       1 <1>         0.111906 
     18 C           5.945168   -0.168095    0.687068 C.3       1 <1>         0.114074 
     19 C           5.484603    1.238886    1.152424 C.3       1 <1>         0.134509 
     20 C          -1.328444   -1.235735    0.148990 C.3       1 <1>         0.134110 
     21 C          -0.043731   -2.024604    0.495734 C.3       1 <1>         0.187899 
     22 C          -1.265950   -0.807948   -1.341349 C.3       1 <1>         0.113972 
     23 C          -1.039009   -2.040370   -2.254891 C.3       1 <1>         0.109478 
     24 C           4.098829    1.559763    0.539734 C.3       1 <1>         0.193645 
     25 C           0.191012   -2.850969   -1.751422 C.3       1 <1>         0.087307 
     26 C           2.337330   -1.736025    0.765888 C.3       1 <1>         0.079556 
     27 C           0.355277   -4.199953   -2.497238 C.3       1 <1>        -0.036060 
     28 C           2.383840    3.163600    0.498984 C.ar      1 <1>         0.084401 
     29 C           1.137242    2.495191    0.944920 C.ar      1 <1>        -0.000161 
     30 C           2.333398    4.148949   -0.499866 C.ar      1 <1>        -0.000933 
     31 C          -0.080243    2.807497    0.338420 C.ar      1 <1>         0.098813 
     32 C           1.045229    4.501125   -1.141911 C.ar      1 <1>         0.088322 
     33 C          -0.128046    3.823668   -0.730906 C.ar      1 <1>         0.081945 
     34 C          -1.489314    4.063789   -1.326691 C.2       1 <1>         0.193509 
     35 C          -2.431869    2.326353    0.136477 C.2       1 <1>         0.093944 
     36 C          -2.596010    3.229048   -0.842786 C.2       1 <1>         0.016919 
     37 C          -3.562647    1.440224    0.618940 C.ar      1 <1>         0.008184 
     38 C          -3.519376    0.952748    1.946564 C.ar      1 <1>        -0.019764 
     39 C          -4.699964    1.047415   -0.253512 C.ar      1 <1>        -0.049512 
     40 C          -4.575692    0.052143    2.460814 C.ar      1 <1>         0.103078 
     41 C          -5.703371    0.193172    0.231339 C.ar      1 <1>        -0.028520 
     42 C          -5.637030   -0.325966    1.616137 C.ar      1 <1>         0.105440 
     43 C          -6.440473   -2.548036    1.643678 C.3       1 <1>         0.043135 
     44 H           3.529695   -0.725587   -0.715977 H         1 <1>         0.064677 
     45 H           4.735269   -1.293298    2.071632 H         1 <1>         0.064673 
     46 H           6.139247   -0.121499   -0.398276 H         1 <1>         0.064758 
     47 H           5.389180    1.229201    2.251817 H         1 <1>         0.067108 
     48 H          -1.341590   -0.329591    0.770316 H         1 <1>         0.067095 
     49 H          -0.126861   -2.350749    1.546189 H         1 <1>         0.093739 
     50 H          -0.410392   -0.120363   -1.470469 H         1 <1>         0.064757 
     51 H          -1.944549   -2.667718   -2.217911 H         1 <1>         0.064584 
     52 H           4.206003    1.650302   -0.555522 H         1 <1>         0.094160 
     53 H           1.102347   -2.253928   -1.926049 H         1 <1>         0.062075 
     54 H           2.301292   -1.844253    1.861519 H         1 <1>         0.058744 
     55 H           2.527069   -2.723627    0.313945 H         1 <1>         0.058744 
     56 H           0.556698   -4.054028   -3.568551 H         1 <1>         0.025536 
     57 H          -0.554603   -4.808633   -2.382991 H         1 <1>         0.025536 
     58 H           1.201028   -4.755635   -2.062815 H         1 <1>         0.025536 
     59 H           5.335504   -2.561055   -0.447896 H         1 <1>         0.210004 
     60 H           7.470371   -1.395336    1.134730 H         1 <1>         0.210005 
     61 H           6.203355    3.105188    1.013438 H         1 <1>         0.210111 
     62 H          -2.556005   -2.830621    0.079072 H         1 <1>         0.210110 
     63 H          -2.462403    0.139979   -2.633499 H         1 <1>         0.210005 
     64 H          -0.794351   -2.210827   -4.258677 H         1 <1>         0.210002 
     65 H           1.163987    1.760418    1.741364 H         1 <1>         0.066957 
     66 H           3.242977    4.648697   -0.812283 H         1 <1>         0.066933 
     67 H          -3.558354    3.390926   -1.322229 H         1 <1>         0.068219 
     68 H           0.148582    5.650445   -2.489878 H         1 <1>         0.217342 
     69 H          -2.705387    1.228077    2.607856 H         1 <1>         0.065075 
     70 H          -4.767100    1.402547   -1.275025 H         1 <1>         0.062505 
     71 H          -6.532982   -0.093731   -0.405683 H         1 <1>         0.064430 
     72 H          -5.259008   -0.949072    4.000596 H         1 <1>         0.217422 
     73 H          -7.247538   -3.161995    2.069794 H         1 <1>         0.052871 
     74 H          -6.487650   -2.617329    0.545780 H         1 <1>         0.052871 
     75 H          -5.473043   -2.944242    1.991160 H         1 <1>         0.052871 
@<TRIPOS>BOND
     1    1   16 1    
     2   24    1 1    
     3   21    2 1    
     4    2   25 1    
     5    3   21 1    
     6   26    3 1    
     7   17    4 1    
     8    4   59 1    
     9   18    5 1    
    10    5   60 1    
    11    6   24 1    
    12   28    6 1    
    13   19    7 1    
    14    7   61 1    
    15   20    8 1    
    16    8   62 1    
    17   22    9 1    
    18    9   63 1    
    19   23   10 1    
    20   10   64 1    
    21   11   31 1    
    22   35   11 1    
    23   32   12 1    
    24   12   68 1    
    25   34   13 2    
    26   42   14 1    
    27   14   43 1    
    28   40   15 1    
    29   15   72 1    
    30   16   17 1    
    31   16   26 1    
    32   16   44 1    
    33   18   17 1    
    34   17   45 1    
    35   19   18 1    
    36   18   46 1    
    37   24   19 1    
    38   19   47 1    
    39   21   20 1    
    40   20   22 1    
    41   20   48 1    
    42   21   49 1    
    43   22   23 1    
    44   22   50 1    
    45   25   23 1    
    46   23   51 1    
    47   24   52 1    
    48   25   27 1    
    49   25   53 1    
    50   26   54 1    
    51   26   55 1    
    52   27   56 1    
    53   27   57 1    
    54   27   58 1    
    55   29   28 1    
    56   28   30 2    
    57   31   29 2    
    58   29   65 1    
    59   32   30 1    
    60   30   66 1    
    61   31   33 1    
    62   33   32 2    
    63   34   33 1    
    64   36   34 1    
    65   35   36 2    
    66   37   35 1    
    67   36   67 1    
    68   38   37 2    
    69   37   39 1    
    70   40   38 1    
    71   38   69 1    
    72   39   41 2    
    73   39   70 1    
    74   40   42 2    
    75   41   42 1    
    76   41   71 1    
    77   43   73 1    
    78   43   74 1    
    79   43   75 1    
@<TRIPOS>SUBSTRUCTURE
     1 ****        8 TEMP              0 ****  ****    0 ROOT 
@<TRIPOS>NORMAL
@<TRIPOS>FF_PBC
FORCE_FIELD_SETUP_FEATURE Force Field Setup information
v1.0  0 0.000000 0.000000 0.000000 0.000000 0.000000 0.000000 NONE 0 0 0 0 1 0 0 0 0 0 0 0 0
