@<TRIPOS>MOLECULE
MOL004678
   25    26     1     1     0
SMALL
GASTEIGER


@<TRIPOS>ATOM
      1 C          -0.124740    0.752530    0.499219 C.ar      1 <1>         0.035858 
      2 C          -1.385867    0.192379   -0.063465 C.ar      1 <1>         0.098479 
      3 C           1.090609   -0.121931    0.473970 C.ar      1 <1>         0.087863 
      4 C          -0.232562    2.164528    1.037415 C.2       1 <1>        -0.043962 
      5 C          -1.422308   -1.100446   -0.593957 C.ar      1 <1>        -0.000296 
      6 O          -2.569927    0.934314   -0.080009 O.3       1 <1>        -0.273626 
      7 C           0.972016   -1.479764   -0.106300 C.ar      1 <1>        -0.000929 
      8 O           2.359439    0.233313    0.959170 O.3       1 <1>        -0.347159 
      9 C          -1.406235    2.800709    0.980780 C.2       1 <1>         0.011032 
     10 C          -0.216176   -1.952869   -0.618521 C.ar      1 <1>         0.080757 
     11 C          -2.605148    2.173109    0.409567 C.2       1 <1>         0.291581 
     12 C           2.799634    1.443000    1.583973 C.3       1 <1>         0.043053 
     13 O          -0.277976   -3.236913   -1.157325 O.3       1 <1>        -0.347746 
     14 O          -3.655097    2.793206    0.380256 O.2       1 <1>        -0.259480 
     15 C          -0.283639   -3.271127   -2.593500 C.3       1 <1>         0.043029 
     16 H           0.570234    2.738895    1.481322 H         1 <1>         0.062686 
     17 H          -2.353090   -1.486268   -0.993692 H         1 <1>         0.066955 
     18 H           1.847178   -2.119083   -0.128993 H         1 <1>         0.066937 
     19 H          -1.511298    3.818052    1.361520 H         1 <1>         0.067749 
     20 H           3.863714    1.303215    1.824787 H         1 <1>         0.052870 
     21 H           2.725158    2.297354    0.895274 H         1 <1>         0.052870 
     22 H           2.265535    1.621660    2.528870 H         1 <1>         0.052870 
     23 H          -0.318258   -4.323346   -2.912155 H         1 <1>         0.052870 
     24 H           0.632152   -2.810201   -2.995730 H         1 <1>         0.052870 
     25 H          -1.163585   -2.750470   -3.001932 H         1 <1>         0.052870 
@<TRIPOS>BOND
     1    1    2 1    
     2    1    3 2    
     3    1    4 1    
     4    2    5 2    
     5    2    6 1    
     6    3    7 1    
     7    3    8 1    
     8    4    9 2    
     9    4   16 1    
    10    5   10 1    
    11    5   17 1    
    12    6   11 1    
    13    7   10 2    
    14    7   18 1    
    15    8   12 1    
    16    9   11 1    
    17    9   19 1    
    18   10   13 1    
    19   11   14 2    
    20   12   20 1    
    21   12   21 1    
    22   12   22 1    
    23   13   15 1    
    24   15   23 1    
    25   15   24 1    
    26   15   25 1    
@<TRIPOS>SUBSTRUCTURE
     1 ****        1 TEMP              0 ****  ****    0 ROOT 
@<TRIPOS>NORMAL
@<TRIPOS>FF_PBC
FORCE_FIELD_SETUP_FEATURE Force Field Setup information
v1.0  0 0.000000 0.000000 0.000000 0.000000 0.000000 0.000000 NONE 0 0 0 0 1 0 0 0 0 0 0 0 0
