@<TRIPOS>MOLECULE
MOL012213
   37    39     1     1     0
SMALL
GASTEIGER


@<TRIPOS>ATOM
      1 C          -8.661322    0.685180    0.010531 C.ar      1 <1>        -0.001303 
      2 C          -8.573155   -0.711551    0.000745 C.ar      1 <1>         0.077519 
      3 C          -7.240137   -1.364817   -0.070720 C.ar      1 <1>        -0.000531 
      4 C          -6.080293   -0.587399   -0.127035 C.ar      1 <1>         0.098804 
      5 C          -6.184688    0.884212   -0.114450 C.ar      1 <1>         0.081945 
      6 C          -7.440419    1.521862   -0.048283 C.ar      1 <1>         0.088313 
      7 O          -4.829212   -1.205582   -0.194628 O.3       1 <1>        -0.307711 
      8 C          -3.665005   -0.530436   -0.242102 C.2       1 <1>         0.093945 
      9 C          -3.645336    0.813363   -0.233771 C.2       1 <1>         0.016919 
     10 C          -4.872763    1.617849   -0.175823 C.2       1 <1>         0.193509 
     11 C          -2.411214   -1.387524   -0.302012 C.ar      1 <1>         0.008192 
     12 O          -7.559581    2.914500   -0.036377 O.3       1 <1>        -0.358955 
     13 C          -1.104025   -0.880418   -0.405495 C.ar      1 <1>        -0.049511 
     14 C           0.054870   -1.800356   -0.451775 C.ar      1 <1>        -0.028512 
     15 C          -0.107159   -3.185016   -0.398683 C.ar      1 <1>         0.105689 
     16 C          -1.482838   -3.750240   -0.294271 C.ar      1 <1>         0.106288 
     17 C          -2.578731   -2.864532   -0.248454 C.ar      1 <1>        -0.019515 
     18 O          -4.842159    2.838160   -0.175867 O.2       1 <1>        -0.287017 
     19 O           1.048027   -3.981422   -0.446336 O.3       1 <1>        -0.345341 
     20 O          -1.669026   -5.141356   -0.243565 O.3       1 <1>        -0.345322 
     21 C           1.002512   -5.414963   -0.382686 C.3       1 <1>         0.043135 
     22 C          -2.958515   -5.762677   -0.117297 C.3       1 <1>         0.043136 
     23 O          -9.744587   -1.468755    0.058507 O.3       1 <1>        -0.359667 
     24 H          -9.633244    1.162278    0.062020 H         1 <1>         0.066923 
     25 H          -7.154300   -2.445661   -0.079918 H         1 <1>         0.066947 
     26 H          -2.739474    1.410282   -0.266974 H         1 <1>         0.068219 
     27 H          -6.726281    3.375726   -0.079000 H         1 <1>         0.217342 
     28 H          -0.896597    0.179575   -0.454786 H         1 <1>         0.062505 
     29 H           1.057492   -1.392810   -0.528205 H         1 <1>         0.064430 
     30 H          -3.582794   -3.257248   -0.172023 H         1 <1>         0.065082 
     31 H           2.037295   -5.783777   -0.430219 H         1 <1>         0.052871 
     32 H           0.450479   -5.832228   -1.238398 H         1 <1>         0.052871 
     33 H           0.559950   -5.755412    0.565769 H         1 <1>         0.052871 
     34 H          -2.801343   -6.851243   -0.094874 H         1 <1>         0.052871 
     35 H          -3.600894   -5.525161   -0.979225 H         1 <1>         0.052871 
     36 H          -3.451282   -5.465360    0.821241 H         1 <1>         0.052871 
     37 H          -9.596822   -2.407687    0.052206 H         1 <1>         0.217316 
@<TRIPOS>BOND
     1    1    2 2    
     2    1    6 1    
     3    1   24 1    
     4    2    3 1    
     5    2   23 1    
     6    3    4 2    
     7    3   25 1    
     8    4    5 1    
     9    4    7 1    
    10    5    6 2    
    11    5   10 1    
    12    6   12 1    
    13    7    8 1    
    14    8    9 2    
    15    8   11 1    
    16    9   10 1    
    17    9   26 1    
    18   10   18 2    
    19   11   13 2    
    20   11   17 1    
    21   12   27 1    
    22   13   14 1    
    23   13   28 1    
    24   14   15 2    
    25   14   29 1    
    26   15   16 1    
    27   15   19 1    
    28   16   17 2    
    29   16   20 1    
    30   17   30 1    
    31   19   21 1    
    32   20   22 1    
    33   21   31 1    
    34   21   32 1    
    35   21   33 1    
    36   22   34 1    
    37   22   35 1    
    38   22   36 1    
    39   23   37 1    
@<TRIPOS>SUBSTRUCTURE
     1 ****        1 TEMP              0 ****  ****    0 ROOT 
@<TRIPOS>NORMAL
@<TRIPOS>FF_PBC
FORCE_FIELD_SETUP_FEATURE Force Field Setup information
v1.0  0 0.000000 0.000000 0.000000 0.000000 0.000000 0.000000 NONE 0 0 0 0 1 0 0 0 0 0 0 0 0
