@<TRIPOS>MOLECULE
MOL001787
   32    34     1     1     0
SMALL
GASTEIGER


@<TRIPOS>ATOM
      1 O          -0.730779    2.649391    2.175126 O.3       1 <1>        -0.392364 
      2 C           0.320798    1.680987    2.010574 C.3       1 <1>         0.073153 
      3 C          -0.212947    0.278645    2.416381 C.3       1 <1>         0.116889 
      4 C           0.710268   -0.882684    1.953146 C.3       1 <1>         0.118333 
      5 O           1.480674   -1.397027    3.054534 O.3       1 <1>        -0.386238 
      6 C          -0.298216   -1.891447    1.353190 C.3       1 <1>         0.172815 
      7 O          -0.825877   -2.718060    2.411185 O.3       1 <1>        -0.380303 
      8 C          -1.383432   -0.932028    0.800587 C.3       1 <1>         0.298101 
      9 O          -1.521064   -0.005792    1.879161 O.3       1 <1>        -0.309356 
     10 N          -1.004921   -0.077574   -0.376625 N.ar      1 <1>        -0.131697 
     11 C          -1.500512    1.178687   -0.575468 C.ar      1 <1>         0.271918 
     12 N          -0.983043    1.681343   -1.770188 N.ar      1 <1>        -0.182219 
     13 C          -0.177371    0.738138   -2.316873 C.ar      1 <1>         0.197660 
     14 C           0.574474    0.694808   -3.453136 C.ar      1 <1>         0.139686 
     15 N           0.622555    1.794325   -4.333026 N.3       1 <1>        -0.284765 
     16 N           1.283393   -0.468060   -3.705239 N.ar      1 <1>        -0.221797 
     17 C           1.239219   -1.569121   -2.834047 C.ar      1 <1>         0.124352 
     18 N           0.490451   -1.530758   -1.683442 N.ar      1 <1>        -0.173021 
     19 C          -0.196943   -0.420656   -1.417960 C.ar      1 <1>         0.338776 
     20 H          -0.453632    3.545169    2.000215 H         1 <1>         0.209508 
     21 H           0.647315    1.695912    0.958695 H         1 <1>         0.058372 
     22 H           1.190350    1.926693    2.644975 H         1 <1>         0.058372 
     23 H          -0.341940    0.255134    3.511569 H         1 <1>         0.064805 
     24 H           1.393064   -0.548756    1.152320 H         1 <1>         0.064917 
     25 H           1.985728   -2.172652    2.829624 H         1 <1>         0.210008 
     26 H           0.165174   -2.534167    0.586309 H         1 <1>         0.071554 
     27 H          -1.470403   -3.359950    2.127854 H         1 <1>         0.210285 
     28 H          -2.335453   -1.453258    0.604631 H         1 <1>         0.144492 
     29 H          -2.182851    1.714316    0.082367 H         1 <1>         0.162031 
     30 H           0.231818    1.503304   -5.297602 H         1 <1>         0.125394 
     31 H           1.645808    2.122959   -4.446276 H         1 <1>         0.125394 
     32 H           1.806996   -2.462029   -3.075538 H         1 <1>         0.104946 
@<TRIPOS>BOND
     1    1    2 1    
     2    1   20 1    
     3    2    3 1    
     4    2   21 1    
     5    2   22 1    
     6    3    4 1    
     7    3    9 1    
     8    3   23 1    
     9    4    5 1    
    10    4    6 1    
    11    4   24 1    
    12    5   25 1    
    13    6    7 1    
    14    6    8 1    
    15    6   26 1    
    16    7   27 1    
    17    8    9 1    
    18    8   10 1    
    19    8   28 1    
    20   10   11 1    
    21   10   19 1    
    22   11   12 2    
    23   11   29 1    
    24   12   13 1    
    25   13   14 2    
    26   13   19 1    
    27   14   15 1    
    28   14   16 1    
    29   15   30 1    
    30   15   31 1    
    31   16   17 2    
    32   17   18 1    
    33   17   32 1    
    34   18   19 2    
@<TRIPOS>SUBSTRUCTURE
     1 ****        1 TEMP              0 ****  ****    0 ROOT 
@<TRIPOS>NORMAL
@<TRIPOS>FF_PBC
FORCE_FIELD_SETUP_FEATURE Force Field Setup information
v1.0  0 0.000000 0.000000 0.000000 0.000000 0.000000 0.000000 NONE 0 0 0 0 1 0 0 0 0 0 0 0 0
