@<TRIPOS>MOLECULE
MOL000346
   14    13     1     1     0
SMALL
GASTEIGER


@<TRIPOS>ATOM
      1 C           0.994732   -1.916112   -0.000013 C.2       1 <1>         0.260074 
      2 O           2.101830   -2.427144   -0.000067 O.2       1 <1>        -0.265164 
      3 O          -0.075056   -2.720568   -0.000086 O.3       1 <1>        -0.331258 
      4 C           0.880056   -0.403657    0.000142 C.3       1 <1>         0.041959 
      5 C          -0.534216    0.238636   -0.000092 C.3       1 <1>         0.041959 
      6 C          -0.472519    1.744124   -0.000017 C.2       1 <1>         0.260074 
      7 O          -1.654999    2.361791   -0.000058 O.3       1 <1>        -0.331258 
      8 O           0.585591    2.353567    0.000074 O.2       1 <1>        -0.265164 
      9 H          -0.926255   -2.306895   -0.000040 H         1 <1>         0.220208 
     10 H           1.421845   -0.046963    0.890745 H         1 <1>         0.037090 
     11 H           1.422199   -0.046782   -0.890175 H         1 <1>         0.037090 
     12 H          -1.091697   -0.069039   -0.898833 H         1 <1>         0.037090 
     13 H          -1.092025   -0.069098    0.898427 H         1 <1>         0.037090 
     14 H          -1.559484    3.308240   -0.000003 H         1 <1>         0.220208 
@<TRIPOS>BOND
     1    1    2 2    
     2    1    3 1    
     3    1    4 1    
     4    3    9 1    
     5    4    5 1    
     6    4   10 1    
     7    4   11 1    
     8    5    6 1    
     9    5   12 1    
    10    5   13 1    
    11    6    7 1    
    12    6    8 2    
    13    7   14 1    
@<TRIPOS>SUBSTRUCTURE
     1 ****        1 TEMP              0 ****  ****    0 ROOT 
@<TRIPOS>NORMAL
@<TRIPOS>FF_PBC
FORCE_FIELD_SETUP_FEATURE Force Field Setup information
v1.0  0 0.000000 0.000000 0.000000 0.000000 0.000000 0.000000 NONE 0 0 0 0 1 0 0 0 0 0 0 0 0
