@<TRIPOS>MOLECULE
MOL012209
   52    54     1     1     0
SMALL
GASTEIGER


@<TRIPOS>ATOM
      1 O          -1.912615    1.264307    4.844946 O.3       1 <1>        -0.387129 
      2 O          -1.783673    3.340861   -2.499207 O.2       1 <1>        -0.292005 
      3 N          -1.291414    0.316234    0.237729 N.3       1 <1>        -0.298964 
      4 C          -2.267622    0.117217    1.349008 C.3       1 <1>         0.013067 
      5 C          -1.966816    0.735651   -1.021002 C.3       1 <1>         0.017395 
      6 C          -3.237612   -1.045765    0.983666 C.3       1 <1>        -0.037194 
      7 C          -2.929670   -0.393265   -1.481153 C.3       1 <1>        -0.036883 
      8 C          -3.953669   -0.725950   -0.357744 C.3       1 <1>        -0.050216 
      9 C          -1.625521   -0.007237    2.769737 C.3       1 <1>        -0.007018 
     10 C          -0.977416    1.177187   -2.141408 C.3       1 <1>         0.026070 
     11 C          -0.198095   -0.686768    0.114754 C.3       1 <1>        -0.012190 
     12 C          -1.418150    1.362206    3.495800 C.3       1 <1>         0.081592 
     13 C          -1.548933    2.265497   -3.025922 C.2       1 <1>         0.164643 
     14 C           0.042819    1.822620    3.502360 C.ar      1 <1>        -0.019102 
     15 C          -1.843026    2.107187   -4.500778 C.ar      1 <1>         0.017446 
     16 C           0.590142    2.485301    2.393181 C.ar      1 <1>        -0.056125 
     17 C           0.884044    1.587831    4.703738 C.ar      1 <1>        -0.056125 
     18 C          -1.127138    1.213357   -5.317779 C.ar      1 <1>        -0.051265 
     19 C          -2.917327    2.926457   -5.123087 C.ar      1 <1>        -0.051265 
     20 C           1.957584    3.051799    2.469120 C.ar      1 <1>        -0.061421 
     21 C           2.187722    2.089047    4.759074 C.ar      1 <1>        -0.061421 
     22 C           2.728724    2.874728    3.625330 C.ar      1 <1>        -0.061740 
     23 C          -1.450542    1.065174   -6.756295 C.ar      1 <1>        -0.061097 
     24 C          -3.219593    2.791603   -6.484154 C.ar      1 <1>        -0.061097 
     25 C          -2.467258    1.832938   -7.327361 C.ar      1 <1>        -0.061720 
     26 H          -2.923474    0.999740    1.402114 H         1 <1>         0.046335 
     27 H          -2.577479    1.621255   -0.788487 H         1 <1>         0.046663 
     28 H          -2.706955   -2.002135    0.894989 H         1 <1>         0.028031 
     29 H          -3.997713   -1.176327    1.771991 H         1 <1>         0.028031 
     30 H          -3.455006   -0.083499   -2.400875 H         1 <1>         0.028041 
     31 H          -2.353497   -1.302913   -1.711954 H         1 <1>         0.028041 
     32 H          -4.586099   -1.577737   -0.660530 H         1 <1>         0.026625 
     33 H          -4.618697    0.144291   -0.228243 H         1 <1>         0.026625 
     34 H          -0.687107   -0.587823    2.757356 H         1 <1>         0.030852 
     35 H          -2.329938   -0.580298    3.395839 H         1 <1>         0.030852 
     36 H          -0.681355    0.297258   -2.722424 H         1 <1>         0.036039 
     37 H          -0.073471    1.608438   -1.682669 H         1 <1>         0.036039 
     38 H           0.128861   -0.898753   -0.909922 H         1 <1>         0.039081 
     39 H          -0.463279   -1.658492    0.541690 H         1 <1>         0.039081 
     40 H           0.671911   -0.306945    0.666029 H         1 <1>         0.039081 
     41 H          -1.999453    2.176206    3.029574 H         1 <1>         0.064388 
     42 H          -1.849603    2.079440    5.337970 H         1 <1>         0.210232 
     43 H           0.008184    2.594634    1.485126 H         1 <1>         0.062110 
     44 H           0.495642    1.018998    5.543340 H         1 <1>         0.062110 
     45 H          -0.315624    0.617283   -4.922281 H         1 <1>         0.062450 
     46 H          -3.471895    3.633858   -4.516043 H         1 <1>         0.062450 
     47 H           2.351275    3.615511    1.630720 H         1 <1>         0.061767 
     48 H           2.803453    1.907123    5.634432 H         1 <1>         0.061767 
     49 H           3.718186    3.317285    3.693136 H         1 <1>         0.061758 
     50 H          -0.889924    0.360984   -7.364613 H         1 <1>         0.061777 
     51 H          -4.004083    3.389355   -6.933303 H         1 <1>         0.061777 
     52 H          -2.700710    1.727183   -8.383230 H         1 <1>         0.061759 
@<TRIPOS>BOND
     1   12    1 1    
     2    1   42 1    
     3   13    2 2    
     4    3    4 1    
     5    5    3 1    
     6    3   11 1    
     7    4    6 1    
     8    4    9 1    
     9    4   26 1    
    10    5    7 1    
    11   10    5 1    
    12    5   27 1    
    13    8    6 1    
    14    6   28 1    
    15    6   29 1    
    16    7    8 1    
    17    7   30 1    
    18    7   31 1    
    19    8   32 1    
    20    8   33 1    
    21    9   12 1    
    22    9   34 1    
    23    9   35 1    
    24   10   13 1    
    25   10   36 1    
    26   10   37 1    
    27   11   38 1    
    28   11   39 1    
    29   11   40 1    
    30   12   14 1    
    31   12   41 1    
    32   13   15 1    
    33   14   16 2    
    34   14   17 1    
    35   15   18 2    
    36   15   19 1    
    37   16   20 1    
    38   16   43 1    
    39   17   21 2    
    40   17   44 1    
    41   18   23 1    
    42   18   45 1    
    43   19   24 2    
    44   19   46 1    
    45   20   22 2    
    46   20   47 1    
    47   21   22 1    
    48   21   48 1    
    49   22   49 1    
    50   23   25 2    
    51   23   50 1    
    52   24   25 1    
    53   24   51 1    
    54   25   52 1    
@<TRIPOS>SUBSTRUCTURE
     1 ****        3 TEMP              0 ****  ****    0 ROOT 
@<TRIPOS>NORMAL
@<TRIPOS>FF_PBC
FORCE_FIELD_SETUP_FEATURE Force Field Setup information
v1.0  0 0.000000 0.000000 0.000000 0.000000 0.000000 0.000000 NONE 0 0 0 0 1 0 0 0 0 0 0 0 0
