@<TRIPOS>MOLECULE
MOL012227
   55    57     1     1     0
SMALL
GASTEIGER


@<TRIPOS>ATOM
      1 C          -4.237232   -0.751358   -0.583316 C.3       1 <1>         0.021433 
      2 C          -3.301728    0.384767   -0.279405 C.2       1 <1>         0.259041 
      3 O          -2.725772    0.335911    0.930275 O.3       1 <1>        -0.315393 
      4 C          -1.884684    1.470054    1.222960 C.3       1 <1>         0.057349 
      5 C          -1.300875    1.292236    2.647727 C.3       1 <1>        -0.024886 
      6 C          -0.503443    2.552364    3.080891 C.3       1 <1>        -0.025494 
      7 C           0.141379    2.362248    4.461062 C.ar      1 <1>        -0.044419 
      8 C           1.573189    2.414012    4.619467 C.ar      1 <1>        -0.025949 
      9 C           2.199951    2.233501    5.953052 C.ar      1 <1>         0.106228 
     10 C           1.363867    2.004941    7.038952 C.ar      1 <1>         0.110439 
     11 C          -0.088110    1.944299    6.870031 C.ar      1 <1>        -0.006524 
     12 C          -0.713263    2.122345    5.653110 C.ar      1 <1>        -0.052342 
     13 O           1.808650    1.821755    8.340342 O.3       1 <1>        -0.333344 
     14 C           0.601248    1.941027    9.137081 C.3       1 <1>         0.099286 
     15 C          -0.656742    1.661265    8.247925 C.3       1 <1>         0.040663 
     16 C          -1.089603    0.177068    8.323326 C.3       1 <1>         0.053790 
     17 O           3.590494    2.295067    6.083911 O.3       1 <1>        -0.345323 
     18 O          -1.544658   -0.094637    9.662181 O.3       1 <1>        -0.394312 
     19 C           4.097145    3.349917    6.920836 C.3       1 <1>         0.043136 
     20 O          -3.107454    1.283299   -1.084502 O.2       1 <1>        -0.265283 
     21 C           0.514119    3.355391    9.740869 C.ar      1 <1>        -0.015139 
     22 C           0.251528    3.535056   11.122548 C.ar      1 <1>        -0.023487 
     23 C           0.168458    4.897359   11.713247 C.ar      1 <1>         0.105741 
     24 C           0.349421    6.023709   10.882193 C.ar      1 <1>         0.102453 
     25 C           0.616409    5.839307    9.433712 C.ar      1 <1>        -0.029059 
     26 C           0.699729    4.553359    8.883291 C.ar      1 <1>        -0.053490 
     27 O           0.274101    7.306581   11.432582 O.3       1 <1>        -0.357269 
     28 O          -0.084773    5.097787   13.079866 O.3       1 <1>        -0.345340 
     29 C          -0.229408    4.001584   13.995886 C.3       1 <1>         0.043136 
     30 H          -4.517412   -0.751542   -1.647932 H         1 <1>         0.033023 
     31 H          -3.750542   -1.707627   -0.339772 H         1 <1>         0.033023 
     32 H          -5.145895   -0.640216    0.026948 H         1 <1>         0.033023 
     33 H          -1.055578    1.542649    0.497194 H         1 <1>         0.056589 
     34 H          -2.477721    2.400936    1.191233 H         1 <1>         0.056589 
     35 H          -0.640515    0.409084    2.663584 H         1 <1>         0.029062 
     36 H          -2.134758    1.114151    3.345280 H         1 <1>         0.029062 
     37 H          -1.172378    3.425226    3.135610 H         1 <1>         0.031390 
     38 H           0.270926    2.763374    2.325802 H         1 <1>         0.031390 
     39 H           2.216219    2.589655    3.763306 H         1 <1>         0.064684 
     40 H          -1.793435    2.086292    5.575515 H         1 <1>         0.062392 
     41 H           0.683430    1.206803    9.953843 H         1 <1>         0.065829 
     42 H          -1.504335    2.324639    8.484712 H         1 <1>         0.040075 
     43 H          -1.900155   -0.003975    7.596558 H         1 <1>         0.056395 
     44 H          -0.232160   -0.471011    8.066671 H         1 <1>         0.056395 
     45 H          -1.827591   -0.996141    9.786817 H         1 <1>         0.209422 
     46 H           5.195252    3.315546    6.867429 H         1 <1>         0.052871 
     47 H           3.797447    3.227643    7.972498 H         1 <1>         0.052871 
     48 H           3.754839    4.331875    6.557954 H         1 <1>         0.052871 
     49 H           0.111622    2.663852   11.746199 H         1 <1>         0.064767 
     50 H           0.749738    6.703395    8.791718 H         1 <1>         0.064413 
     51 H           0.899564    4.443866    7.824022 H         1 <1>         0.062192 
     52 H           0.489811    8.002875   10.823656 H         1 <1>         0.217422 
     53 H          -0.396491    4.427942   14.996076 H         1 <1>         0.052871 
     54 H           0.686209    3.390305   14.028390 H         1 <1>         0.052871 
     55 H          -1.099137    3.377593   13.736587 H         1 <1>         0.052871 
@<TRIPOS>BOND
     1    1    2 1    
     2    1   30 1    
     3    1   31 1    
     4    1   32 1    
     5    2    3 1    
     6    2   20 2    
     7    3    4 1    
     8    4    5 1    
     9    4   33 1    
    10    4   34 1    
    11    5    6 1    
    12    5   35 1    
    13    5   36 1    
    14    6    7 1    
    15    6   37 1    
    16    6   38 1    
    17    7    8 2    
    18    7   12 1    
    19    8    9 1    
    20    8   39 1    
    21    9   10 2    
    22    9   17 1    
    23   10   11 1    
    24   10   13 1    
    25   11   12 2    
    26   11   15 1    
    27   12   40 1    
    28   13   14 1    
    29   14   15 1    
    30   14   21 1    
    31   14   41 1    
    32   15   16 1    
    33   15   42 1    
    34   16   18 1    
    35   16   43 1    
    36   16   44 1    
    37   17   19 1    
    38   18   45 1    
    39   19   46 1    
    40   19   47 1    
    41   19   48 1    
    42   21   22 2    
    43   21   26 1    
    44   22   23 1    
    45   22   49 1    
    46   23   24 2    
    47   23   28 1    
    48   24   25 1    
    49   24   27 1    
    50   25   26 2    
    51   25   50 1    
    52   26   51 1    
    53   27   52 1    
    54   28   29 1    
    55   29   53 1    
    56   29   54 1    
    57   29   55 1    
@<TRIPOS>SUBSTRUCTURE
     1 ****        1 TEMP              0 ****  ****    0 ROOT 
@<TRIPOS>NORMAL
@<TRIPOS>FF_PBC
FORCE_FIELD_SETUP_FEATURE Force Field Setup information
v1.0  0 0.000000 0.000000 0.000000 0.000000 0.000000 0.000000 NONE 0 0 0 0 1 0 0 0 0 0 0 0 0
