@<TRIPOS>MOLECULE
MOL012207
   54    56     1     1     0
SMALL
GASTEIGER


@<TRIPOS>ATOM
      1 O          -2.115755    2.890331    3.491625 O.3       1 <1>        -0.387129 
      2 O          -0.638840    2.101004   -1.960348 O.3       1 <1>        -0.387129 
      3 N          -1.809593    0.169440    0.144045 N.3       1 <1>        -0.299281 
      4 C          -2.570511   -0.021689    1.411686 C.3       1 <1>         0.013056 
      5 C          -2.624993   -0.254965   -1.028319 C.3       1 <1>         0.013056 
      6 C          -2.897402   -1.527178    1.609565 C.3       1 <1>        -0.037194 
      7 C          -2.955058   -1.771165   -0.935555 C.3       1 <1>        -0.037194 
      8 C          -3.692578   -2.073719    0.394707 C.3       1 <1>        -0.050226 
      9 C          -1.897564    0.589036    2.676974 C.3       1 <1>        -0.007018 
     10 C          -2.046180    0.132380   -2.420415 C.3       1 <1>        -0.007018 
     11 C          -0.388829   -0.272671    0.148602 C.3       1 <1>        -0.012201 
     12 C          -1.480645    2.079413    2.483847 C.3       1 <1>         0.081592 
     13 C          -1.854258    1.665030   -2.593303 C.3       1 <1>         0.081592 
     14 C          -1.814608    1.976494   -4.098916 C.ar      1 <1>        -0.019102 
     15 C           0.041977    2.238134    2.629557 C.ar      1 <1>        -0.019102 
     16 C           0.840367    2.705397    1.564900 C.ar      1 <1>        -0.056125 
     17 C          -2.983283    2.384595   -4.784794 C.ar      1 <1>        -0.056125 
     18 C           0.687572    1.882958    3.918455 C.ar      1 <1>        -0.056125 
     19 C          -0.543215    1.841002   -4.850306 C.ar      1 <1>        -0.056125 
     20 C           2.308540    2.828131    1.732003 C.ar      1 <1>        -0.061421 
     21 C          -2.933639    2.671866   -6.238418 C.ar      1 <1>        -0.061421 
     22 C           2.078561    1.991839    4.071908 C.ar      1 <1>        -0.061421 
     23 C          -0.500716    2.111887   -6.231875 C.ar      1 <1>        -0.061421 
     24 C           2.912372    2.479714    2.947801 C.ar      1 <1>        -0.061740 
     25 C          -1.729695    2.539456   -6.944441 C.ar      1 <1>        -0.061740 
     26 H          -3.525691    0.523918    1.323031 H         1 <1>         0.046335 
     27 H          -3.591819    0.274369   -0.978996 H         1 <1>         0.046335 
     28 H          -3.606205   -2.073599   -1.772149 H         1 <1>         0.028031 
     29 H          -2.033915   -2.367905   -1.004753 H         1 <1>         0.028031 
     30 H          -1.965866   -2.101376    1.727912 H         1 <1>         0.028031 
     31 H          -3.496833   -1.675848    2.522655 H         1 <1>         0.028031 
     32 H          -3.844507   -3.162395    0.499836 H         1 <1>         0.026625 
     33 H          -4.686945   -1.595832    0.373027 H         1 <1>         0.026625 
     34 H          -1.047273   -0.039156    2.980390 H         1 <1>         0.030852 
     35 H          -2.620663    0.536911    3.507859 H         1 <1>         0.030852 
     36 H          -2.775476   -0.201394   -3.177279 H         1 <1>         0.030852 
     37 H          -1.105989   -0.392465   -2.640759 H         1 <1>         0.030852 
     38 H           0.147214    0.086250   -0.737359 H         1 <1>         0.039081 
     39 H          -0.283601   -1.364375    0.179934 H         1 <1>         0.039081 
     40 H           0.161917    0.131478    1.004827 H         1 <1>         0.039081 
     41 H          -1.811171    2.434702    1.492215 H         1 <1>         0.064388 
     42 H          -2.706134    2.200012   -2.139670 H         1 <1>         0.064388 
     43 H          -1.891873    3.813165    3.418342 H         1 <1>         0.210232 
     44 H          -0.486299    3.033882   -2.066967 H         1 <1>         0.210232 
     45 H          -3.924605    2.487982   -4.252960 H         1 <1>         0.062110 
     46 H           0.391470    2.975220    0.614919 H         1 <1>         0.062110 
     47 H           0.081512    1.532095    4.747160 H         1 <1>         0.062110 
     48 H           0.357093    1.529635   -4.332579 H         1 <1>         0.062110 
     49 H           2.915241    3.188427    0.907643 H         1 <1>         0.061767 
     50 H          -3.835916    2.984503   -6.755842 H         1 <1>         0.061767 
     51 H           2.545088    1.717648    5.014326 H         1 <1>         0.061767 
     52 H           0.430336    2.007876   -6.778241 H         1 <1>         0.061767 
     53 H           3.987732    2.569363    3.071724 H         1 <1>         0.061758 
     54 H          -1.692064    2.747980   -8.009694 H         1 <1>         0.061758 
@<TRIPOS>BOND
     1   12    1 1    
     2    1   43 1    
     3   13    2 1    
     4    2   44 1    
     5    3    4 1    
     6    5    3 1    
     7    3   11 1    
     8    4    6 1    
     9    4    9 1    
    10    4   26 1    
    11    5    7 1    
    12   10    5 1    
    13    5   27 1    
    14    8    6 1    
    15    6   30 1    
    16    6   31 1    
    17    7    8 1    
    18    7   28 1    
    19    7   29 1    
    20    8   32 1    
    21    8   33 1    
    22    9   12 1    
    23    9   34 1    
    24    9   35 1    
    25   10   13 1    
    26   10   36 1    
    27   10   37 1    
    28   11   38 1    
    29   11   39 1    
    30   11   40 1    
    31   12   15 1    
    32   12   41 1    
    33   13   14 1    
    34   13   42 1    
    35   14   17 2    
    36   14   19 1    
    37   15   16 2    
    38   15   18 1    
    39   16   20 1    
    40   16   46 1    
    41   17   21 1    
    42   17   45 1    
    43   18   22 2    
    44   18   47 1    
    45   19   23 2    
    46   19   48 1    
    47   20   24 2    
    48   20   49 1    
    49   21   25 2    
    50   21   50 1    
    51   22   24 1    
    52   22   51 1    
    53   23   25 1    
    54   23   52 1    
    55   24   53 1    
    56   25   54 1    
@<TRIPOS>SUBSTRUCTURE
     1 ****        3 TEMP              0 ****  ****    0 ROOT 
@<TRIPOS>NORMAL
@<TRIPOS>FF_PBC
FORCE_FIELD_SETUP_FEATURE Force Field Setup information
v1.0  0 0.000000 0.000000 0.000000 0.000000 0.000000 0.000000 NONE 0 0 0 0 1 0 0 0 0 0 0 0 0
