@<TRIPOS>MOLECULE
MOL012222
   41    41     1     1     0
SMALL
GASTEIGER


@<TRIPOS>ATOM
      1 C          -4.527527    2.042498   -0.916814 C.3       1 <1>        -0.058575 
      2 C          -4.442008    0.905303    0.134429 C.3       1 <1>         0.003040 
      3 C          -3.889066   -0.368549   -0.460594 C.2       1 <1>         0.134588 
      4 C          -3.178925   -1.345258    0.449415 C.3       1 <1>         0.021430 
      5 C          -4.137947   -2.025363    1.469711 C.3       1 <1>         0.017057 
      6 N          -3.389175   -2.764601    2.526772 N.3       1 <1>        -0.298985 
      7 C          -2.735239   -4.012648    2.040930 C.3       1 <1>         0.012740 
      8 C          -3.817861   -4.978214    1.486891 C.3       1 <1>        -0.037205 
      9 C          -4.590373   -4.293550    0.328489 C.3       1 <1>        -0.050216 
     10 C          -5.196861   -2.945185    0.795313 C.3       1 <1>        -0.036893 
     11 C          -1.771232   -4.721309    3.043564 C.3       1 <1>        -0.011443 
     12 C          -0.468363   -3.925777    3.354541 C.3       1 <1>         0.053865 
     13 C          -0.703206   -2.615908    4.152122 C.3       1 <1>        -0.038896 
     14 O           0.380504   -4.802776    4.119307 O.3       1 <1>        -0.392006 
     15 O          -4.017963   -0.610327   -1.650199 O.2       1 <1>        -0.297366 
     16 C          -4.120042   -2.820041    3.823811 C.3       1 <1>        -0.012190 
     17 H          -4.926224    2.959735   -0.455017 H         1 <1>         0.023374 
     18 H          -5.189753    1.753590   -1.748284 H         1 <1>         0.023374 
     19 H          -3.526150    2.258938   -1.321710 H         1 <1>         0.023374 
     20 H          -3.813885    1.241339    0.975034 H         1 <1>         0.033884 
     21 H          -5.454964    0.700402    0.515138 H         1 <1>         0.033884 
     22 H          -2.394882   -0.810234    1.007569 H         1 <1>         0.035682 
     23 H          -2.678013   -2.077247   -0.197126 H         1 <1>         0.035682 
     24 H          -4.684728   -1.189828    1.938172 H         1 <1>         0.046652 
     25 H          -2.080403   -3.761204    1.194986 H         1 <1>         0.046325 
     26 H          -3.354879   -5.900021    1.097399 H         1 <1>         0.028031 
     27 H          -4.509816   -5.266105    2.292975 H         1 <1>         0.028031 
     28 H          -5.397044   -4.959937   -0.021071 H         1 <1>         0.026625 
     29 H          -3.911620   -4.125041   -0.522526 H         1 <1>         0.026625 
     30 H          -5.662501   -2.429204   -0.060184 H         1 <1>         0.028041 
     31 H          -5.996999   -3.166652    1.519777 H         1 <1>         0.028041 
     32 H          -2.276304   -5.017776    3.972775 H         1 <1>         0.030507 
     33 H          -1.430945   -5.658178    2.571253 H         1 <1>         0.030507 
     34 H           0.035718   -3.679490    2.401733 H         1 <1>         0.059080 
     35 H           0.260081   -2.120688    4.348594 H         1 <1>         0.025443 
     36 H          -1.335604   -1.911256    3.594108 H         1 <1>         0.025443 
     37 H          -1.173459   -2.844498    5.119477 H         1 <1>         0.025443 
     38 H           1.232718   -4.428066    4.319122 H         1 <1>         0.209765 
     39 H          -4.374610   -1.803438    4.159485 H         1 <1>         0.039081 
     40 H          -3.526216   -3.256947    4.633523 H         1 <1>         0.039081 
     41 H          -5.052541   -3.395758    3.742948 H         1 <1>         0.039081 
@<TRIPOS>BOND
     1    1    2 1    
     2    1   17 1    
     3    1   18 1    
     4    1   19 1    
     5    2    3 1    
     6    2   20 1    
     7    2   21 1    
     8    3    4 1    
     9    3   15 2    
    10    4    5 1    
    11    4   22 1    
    12    4   23 1    
    13    5    6 1    
    14    5   10 1    
    15    5   24 1    
    16    6    7 1    
    17    6   16 1    
    18    7    8 1    
    19    7   11 1    
    20    7   25 1    
    21    8    9 1    
    22    8   26 1    
    23    8   27 1    
    24    9   10 1    
    25    9   28 1    
    26    9   29 1    
    27   10   30 1    
    28   10   31 1    
    29   11   12 1    
    30   11   32 1    
    31   11   33 1    
    32   12   13 1    
    33   12   14 1    
    34   12   34 1    
    35   13   35 1    
    36   13   36 1    
    37   13   37 1    
    38   14   38 1    
    39   16   39 1    
    40   16   40 1    
    41   16   41 1    
@<TRIPOS>SUBSTRUCTURE
     1 ****        1 TEMP              0 ****  ****    0 ROOT 
@<TRIPOS>NORMAL
@<TRIPOS>FF_PBC
FORCE_FIELD_SETUP_FEATURE Force Field Setup information
v1.0  0 0.000000 0.000000 0.000000 0.000000 0.000000 0.000000 NONE 0 0 0 0 1 0 0 0 0 0 0 0 0
