@<TRIPOS>MOLECULE
MOL005530
   34    36     1     1     0
SMALL
GASTEIGER


@<TRIPOS>ATOM
      1 C           1.302728   -1.013131   -4.057661 C.ar      1 <1>        -0.001055 
      2 C           1.841776   -1.699898   -2.856507 C.ar      1 <1>         0.088321 
      3 C           1.369831   -1.313893   -1.581636 C.ar      1 <1>         0.081945 
      4 C           0.359380   -0.246687   -1.443820 C.ar      1 <1>         0.098812 
      5 C          -0.142478    0.394688   -2.583980 C.ar      1 <1>        -0.000283 
      6 C           0.338774    0.005201   -3.935680 C.ar      1 <1>         0.080751 
      7 O          -0.136614    0.620275   -5.100550 O.3       1 <1>        -0.347746 
      8 C          -1.117205    1.668803   -5.044783 C.3       1 <1>         0.043029 
      9 O           2.797968   -2.710540   -2.972093 O.3       1 <1>        -0.358955 
     10 C           1.832379   -1.928863   -0.286785 C.2       1 <1>         0.193509 
     11 C           1.238353   -1.413717    0.954013 C.2       1 <1>         0.016919 
     12 C           0.320944   -0.432458    0.965660 C.2       1 <1>         0.093944 
     13 O          -0.102573    0.130586   -0.180343 O.3       1 <1>        -0.307711 
     14 O           2.665381   -2.819691   -0.248618 O.2       1 <1>        -0.287017 
     15 C          -0.305353    0.115601    2.237269 C.ar      1 <1>         0.008184 
     16 C          -1.327429    1.186194    2.095897 C.ar      1 <1>        -0.049519 
     17 C          -1.956506    1.748581    3.220316 C.ar      1 <1>        -0.028770 
     18 C          -1.615815    1.285849    4.583106 C.ar      1 <1>         0.102222 
     19 C          -0.647124    0.268238    4.756250 C.ar      1 <1>         0.102827 
     20 C           0.021522   -0.328303    3.570828 C.ar      1 <1>        -0.019772 
     21 O          -0.337329   -0.157889    6.051924 O.3       1 <1>        -0.357261 
     22 O          -2.255571    1.859812    5.683926 O.3       1 <1>        -0.357274 
     23 H           1.648049   -1.290655   -5.047129 H         1 <1>         0.066931 
     24 H          -0.882379    1.172608   -2.447225 H         1 <1>         0.066955 
     25 H          -1.326366    1.987950   -6.076453 H         1 <1>         0.052870 
     26 H          -0.736539    2.536509   -4.484371 H         1 <1>         0.052870 
     27 H          -2.056124    1.308824   -4.596771 H         1 <1>         0.052870 
     28 H           3.054278   -2.899967   -3.867324 H         1 <1>         0.217342 
     29 H           1.611765   -1.901588    1.848721 H         1 <1>         0.068219 
     30 H          -1.603016    1.550398    1.111601 H         1 <1>         0.062505 
     31 H          -2.699804    2.529315    3.097903 H         1 <1>         0.064422 
     32 H           0.756529   -1.100849    3.743365 H         1 <1>         0.065074 
     33 H           0.316268   -0.847019    6.087092 H         1 <1>         0.217422 
     34 H          -1.953282    1.480314    6.503512 H         1 <1>         0.217422 
@<TRIPOS>BOND
     1    1    2 1    
     2    1    6 2    
     3    1   23 1    
     4    2    3 2    
     5    2    9 1    
     6    3    4 1    
     7    3   10 1    
     8    4    5 2    
     9    4   13 1    
    10    5    6 1    
    11    5   24 1    
    12    6    7 1    
    13    7    8 1    
    14    8   25 1    
    15    8   26 1    
    16    8   27 1    
    17    9   28 1    
    18   10   11 1    
    19   10   14 2    
    20   11   12 2    
    21   11   29 1    
    22   12   13 1    
    23   12   15 1    
    24   15   16 1    
    25   15   20 2    
    26   16   17 2    
    27   16   30 1    
    28   17   18 1    
    29   17   31 1    
    30   18   19 2    
    31   18   22 1    
    32   19   20 1    
    33   19   21 1    
    34   20   32 1    
    35   21   33 1    
    36   22   34 1    
@<TRIPOS>SUBSTRUCTURE
     1 ****        1 TEMP              0 ****  ****    0 ROOT 
@<TRIPOS>NORMAL
@<TRIPOS>FF_PBC
FORCE_FIELD_SETUP_FEATURE Force Field Setup information
v1.0  0 0.000000 0.000000 0.000000 0.000000 0.000000 0.000000 NONE 0 0 0 0 1 0 0 0 0 0 0 0 0
