@<TRIPOS>MOLECULE
MOL000339
   22    23     1     1     0
SMALL
GASTEIGER


@<TRIPOS>ATOM
      1 C          -0.757639   -3.355361   -1.650975 C.3       1 <1>         0.043137 
      2 O           0.410393   -2.755205   -1.068141 O.3       1 <1>        -0.345266 
      3 C           0.398115   -1.457174   -0.534378 C.ar      1 <1>         0.107900 
      4 C           1.640047   -0.925039    0.084339 C.ar      1 <1>         0.103161 
      5 O           2.787279   -1.726531    0.117356 O.3       1 <1>        -0.357254 
      6 C          -0.770366   -0.638251   -0.569603 C.ar      1 <1>         0.002072 
      7 C          -0.752251    0.726140    0.005040 C.ar      1 <1>         0.096172 
      8 C           0.430169    1.220160    0.590942 C.ar      1 <1>         0.008357 
      9 C           1.650684    0.381253    0.631975 C.ar      1 <1>        -0.019761 
     10 O          -1.913728    1.503570   -0.043227 O.3       1 <1>        -0.273708 
     11 C          -1.915331    2.738812    0.474134 C.2       1 <1>         0.291579 
     12 C          -0.710371    3.312598    1.100816 C.2       1 <1>         0.010953 
     13 C           0.424781    2.613197    1.171889 C.2       1 <1>        -0.046363 
     14 O          -2.938372    3.401060    0.423984 O.2       1 <1>        -0.259480 
     15 H          -0.484833   -4.370371   -1.975463 H         1 <1>         0.052871 
     16 H          -1.571234   -3.434580   -0.913762 H         1 <1>         0.052871 
     17 H          -1.095762   -2.789994   -2.532753 H         1 <1>         0.052871 
     18 H           3.547610   -1.319375    0.515961 H         1 <1>         0.217422 
     19 H          -1.695252   -0.984381   -1.011521 H         1 <1>         0.067037 
     20 H           2.551418    0.779135    1.086084 H         1 <1>         0.065075 
     21 H          -0.763881    4.322932    1.506775 H         1 <1>         0.067748 
     22 H           1.320923    3.029504    1.633328 H         1 <1>         0.062606 
@<TRIPOS>BOND
     1    1    2 1    
     2    1   15 1    
     3    1   16 1    
     4    1   17 1    
     5    2    3 1    
     6    3    4 1    
     7    3    6 2    
     8    4    5 1    
     9    4    9 2    
    10    5   18 1    
    11    6    7 1    
    12    6   19 1    
    13    7    8 2    
    14    7   10 1    
    15    8    9 1    
    16    8   13 1    
    17    9   20 1    
    18   10   11 1    
    19   11   12 1    
    20   11   14 2    
    21   12   13 2    
    22   12   21 1    
    23   13   22 1    
@<TRIPOS>SUBSTRUCTURE
     1 ****        1 TEMP              0 ****  ****    0 ROOT 
@<TRIPOS>NORMAL
@<TRIPOS>FF_PBC
FORCE_FIELD_SETUP_FEATURE Force Field Setup information
v1.0  0 0.000000 0.000000 0.000000 0.000000 0.000000 0.000000 NONE 0 0 0 0 1 0 0 0 0 0 0 0 0
