@<TRIPOS>MOLECULE
MOL003044
   34    36     1     1     0
SMALL
GASTEIGER


@<TRIPOS>ATOM
      1 C          -1.715661    1.617624    0.009657 C.ar      1 <1>         0.098804 
      2 C          -1.292619    3.031802    0.043227 C.ar      1 <1>         0.081945 
      3 O          -0.765225    0.593944    0.001669 O.3       1 <1>        -0.307711 
      4 C          -3.077692    1.298618   -0.014361 C.ar      1 <1>        -0.000531 
      5 C           0.197160    3.252621    0.067005 C.2       1 <1>         0.193509 
      6 C          -2.247907    4.071091    0.051417 C.ar      1 <1>         0.088313 
      7 C           0.561963    0.811757    0.023298 C.2       1 <1>         0.093945 
      8 C          -4.098256    2.377893   -0.006199 C.ar      1 <1>         0.077519 
      9 C           1.055728    2.060699    0.054560 C.2       1 <1>         0.016919 
     10 O           0.690695    4.368205    0.095550 O.2       1 <1>        -0.287017 
     11 C          -3.690876    3.719853    0.025702 C.ar      1 <1>        -0.001303 
     12 O          -1.831583    5.403162    0.083242 O.3       1 <1>        -0.358955 
     13 C           1.431807   -0.434205    0.009883 C.ar      1 <1>         0.008192 
     14 O          -5.462132    2.080583   -0.029797 O.3       1 <1>        -0.359667 
     15 C           0.749364   -1.753695   -0.024538 C.ar      1 <1>        -0.019523 
     16 C           2.850377   -0.432459    0.027775 C.ar      1 <1>        -0.049519 
     17 C           1.450747   -2.970044   -0.039507 C.ar      1 <1>         0.106040 
     18 C           3.606279   -1.706861    0.012396 C.ar      1 <1>        -0.028762 
     19 C           2.941037   -2.954235   -0.020390 C.ar      1 <1>         0.102473 
     20 O           0.700785   -4.156439   -0.072206 O.3       1 <1>        -0.345330 
     21 O           3.674420   -4.146814   -0.034453 O.3       1 <1>        -0.357268 
     22 C           1.309645   -5.456362   -0.090116 C.3       1 <1>         0.043136 
     23 H          -3.376203    0.256613   -0.038918 H         1 <1>         0.066947 
     24 H           2.116714    2.289108    0.072982 H         1 <1>         0.068219 
     25 H          -4.445374    4.498367    0.031341 H         1 <1>         0.066923 
     26 H          -2.544560    6.031403    0.086300 H         1 <1>         0.217342 
     27 H          -5.651922    1.149326   -0.050614 H         1 <1>         0.217316 
     28 H          -0.333692   -1.800982   -0.039114 H         1 <1>         0.065082 
     29 H           3.424005    0.483797    0.052883 H         1 <1>         0.062505 
     30 H           4.690444   -1.666984    0.026857 H         1 <1>         0.064422 
     31 H           4.618422   -4.036941   -0.020235 H         1 <1>         0.217422 
     32 H           0.501046   -6.201342   -0.114963 H         1 <1>         0.052871 
     33 H           1.906375   -5.627121    0.818706 H         1 <1>         0.052871 
     34 H           1.929162   -5.591535   -0.989633 H         1 <1>         0.052871 
@<TRIPOS>BOND
     1    1    2 1    
     2    1    3 1    
     3    1    4 2    
     4    2    5 1    
     5    2    6 2    
     6    3    7 1    
     7    4    8 1    
     8    4   23 1    
     9    5    9 1    
    10    5   10 2    
    11    6   11 1    
    12    6   12 1    
    13    7    9 2    
    14    7   13 1    
    15    8   11 2    
    16    8   14 1    
    17    9   24 1    
    18   11   25 1    
    19   12   26 1    
    20   13   15 1    
    21   13   16 2    
    22   14   27 1    
    23   15   17 2    
    24   15   28 1    
    25   16   18 1    
    26   16   29 1    
    27   17   19 1    
    28   17   20 1    
    29   18   19 2    
    30   18   30 1    
    31   19   21 1    
    32   20   22 1    
    33   21   31 1    
    34   22   32 1    
    35   22   33 1    
    36   22   34 1    
@<TRIPOS>SUBSTRUCTURE
     1 ****        1 TEMP              0 ****  ****    0 ROOT 
@<TRIPOS>NORMAL
@<TRIPOS>FF_PBC
FORCE_FIELD_SETUP_FEATURE Force Field Setup information
v1.0  0 0.000000 0.000000 0.000000 0.000000 0.000000 0.000000 NONE 0 0 0 0 1 0 0 0 0 0 0 0 0
