@<TRIPOS>MOLECULE
MOL012231
   26    27     1     1     0
SMALL
GASTEIGER


@<TRIPOS>ATOM
      1 O           5.103767    1.529165    0.485768 O.3       1 <1>        -0.271015 
      2 C           6.256242    0.847679    0.452760 C.2       1 <1>         0.291657 
      3 O           7.308364    1.464347    0.454341 O.2       1 <1>        -0.259479 
      4 C           6.278727   -0.626213    0.414720 C.2       1 <1>         0.011034 
      5 C           5.143554   -1.328997    0.410272 C.2       1 <1>        -0.043877 
      6 C           3.843035   -0.564238    0.443958 C.ar      1 <1>         0.038401 
      7 C           2.542902   -1.274327    0.437149 C.ar      1 <1>         0.088031 
      8 C           1.349234   -0.545430    0.474480 C.ar      1 <1>         0.001610 
      9 C           1.378297    0.934499    0.514296 C.ar      1 <1>         0.110472 
     10 C           2.618444    1.618546    0.519999 C.ar      1 <1>         0.134312 
     11 C           3.884112    0.842741    0.482422 C.ar      1 <1>         0.128170 
     12 O           2.650813    3.015657    0.561863 O.3       1 <1>        -0.355356 
     13 O           0.173784    1.639186    0.548960 O.3       1 <1>        -0.345178 
     14 C          -0.173167    2.286713   -0.685924 C.3       1 <1>         0.043138 
     15 O           2.509441   -2.666868    0.394549 O.3       1 <1>        -0.347157 
     16 C           2.334951   -3.204759   -0.926103 C.3       1 <1>         0.043053 
     17 H           7.243110   -1.133846    0.390576 H         1 <1>         0.067749 
     18 H           5.147277   -2.419244    0.384118 H         1 <1>         0.062687 
     19 H           0.397038   -1.063105    0.474147 H         1 <1>         0.067022 
     20 H           3.542732    3.347492    0.585035 H         1 <1>         0.217502 
     21 H          -1.139682    2.793305   -0.547842 H         1 <1>         0.052871 
     22 H           0.577631    3.038366   -0.973924 H         1 <1>         0.052871 
     23 H          -0.275295    1.545893   -1.494138 H         1 <1>         0.052871 
     24 H           2.330465   -4.302341   -0.852986 H         1 <1>         0.052870 
     25 H           1.379105   -2.876572   -1.363422 H         1 <1>         0.052870 
     26 H           3.162020   -2.897749   -1.585374 H         1 <1>         0.052870 
@<TRIPOS>BOND
     1    1    2 1    
     2    1   11 1    
     3    2    3 2    
     4    2    4 1    
     5    4    5 2    
     6    4   17 1    
     7    5    6 1    
     8    5   18 1    
     9    6    7 1    
    10    6   11 2    
    11    7    8 2    
    12    7   15 1    
    13    8    9 1    
    14    8   19 1    
    15    9   10 2    
    16    9   13 1    
    17   10   11 1    
    18   10   12 1    
    19   12   20 1    
    20   13   14 1    
    21   14   21 1    
    22   14   22 1    
    23   14   23 1    
    24   15   16 1    
    25   16   24 1    
    26   16   25 1    
    27   16   26 1    
@<TRIPOS>SUBSTRUCTURE
     1 ****        1 TEMP              0 ****  ****    0 ROOT 
@<TRIPOS>NORMAL
@<TRIPOS>FF_PBC
FORCE_FIELD_SETUP_FEATURE Force Field Setup information
v1.0  0 0.000000 0.000000 0.000000 0.000000 0.000000 0.000000 NONE 0 0 0 0 1 0 0 0 0 0 0 0 0
