@<TRIPOS>MOLECULE
MOL012225
   55    57     1     1     0
SMALL
GASTEIGER


@<TRIPOS>ATOM
      1 C          -4.205773   -0.783161   -0.515322 C.3       1 <1>         0.021433 
      2 C          -3.440934    0.470367   -0.194908 C.2       1 <1>         0.259041 
      3 O          -2.711303    0.416451    0.927999 O.3       1 <1>        -0.315393 
      4 C          -2.030710    1.646681    1.247210 C.3       1 <1>         0.057349 
      5 C          -1.257959    1.425754    2.571516 C.3       1 <1>        -0.024886 
      6 C          -0.568846    2.724502    3.067311 C.3       1 <1>        -0.025494 
      7 C           0.139870    2.449955    4.399874 C.ar      1 <1>        -0.044419 
      8 C           1.571395    2.355790    4.479242 C.ar      1 <1>        -0.025949 
      9 C           2.243308    2.067691    5.771403 C.ar      1 <1>         0.106228 
     10 C           1.445995    1.882559    6.891997 C.ar      1 <1>         0.110439 
     11 C          -0.010162    1.994225    6.810805 C.ar      1 <1>        -0.006524 
     12 C          -0.673841    2.271060    5.629794 C.ar      1 <1>        -0.052342 
     13 O           1.936152    1.574838    8.151919 O.3       1 <1>        -0.333344 
     14 C           0.809595    1.850256    9.021214 C.3       1 <1>         0.099286 
     15 C          -0.528177    1.745622    8.215781 C.3       1 <1>         0.040663 
     16 C          -1.596846    2.773806    8.662765 C.3       1 <1>         0.053790 
     17 O           3.637565    1.981390    5.829638 O.3       1 <1>        -0.345323 
     18 O          -2.801585    2.559308    7.907058 O.3       1 <1>        -0.394312 
     19 C           4.295130    2.912463    6.706081 C.3       1 <1>         0.043136 
     20 O          -3.510696    1.460188   -0.906571 O.2       1 <1>        -0.265283 
     21 C           0.821482    0.884496   10.209227 C.ar      1 <1>        -0.015139 
     22 C           0.435964    1.297792   11.495328 C.ar      1 <1>        -0.023487 
     23 C           0.454283    0.358137   12.641387 C.ar      1 <1>         0.105741 
     24 C           0.880062   -1.001858   12.424980 C.ar      1 <1>         0.102453 
     25 C           1.279480   -1.421148   11.055966 C.ar      1 <1>        -0.029059 
     26 C           1.250178   -0.516893    9.990328 C.ar      1 <1>        -0.053490 
     27 O           0.920351   -1.924294   13.475650 O.3       1 <1>        -0.357269 
     28 O           0.051554    0.848839   13.893603 O.3       1 <1>        -0.345340 
     29 C           0.037797    0.038961   15.079372 C.3       1 <1>         0.043136 
     30 H          -4.465292   -0.810654   -1.584400 H         1 <1>         0.033023 
     31 H          -3.602375   -1.669722   -0.270164 H         1 <1>         0.033023 
     32 H          -5.129581   -0.800910    0.081180 H         1 <1>         0.033023 
     33 H          -2.762286    2.460994    1.382594 H         1 <1>         0.056589 
     34 H          -1.323664    1.924936    0.447570 H         1 <1>         0.056589 
     35 H          -0.499813    0.639259    2.420074 H         1 <1>         0.029062 
     36 H          -1.972123    1.071494    3.333184 H         1 <1>         0.029062 
     37 H          -1.318275    3.514956    3.230255 H         1 <1>         0.031390 
     38 H           0.148799    3.082149    2.311922 H         1 <1>         0.031390 
     39 H           2.181230    2.488913    3.592196 H         1 <1>         0.064684 
     40 H          -1.754282    2.349580    5.602138 H         1 <1>         0.062392 
     41 H           0.957666    2.887231    9.366047 H         1 <1>         0.065829 
     42 H          -0.930140    0.720310    8.248654 H         1 <1>         0.040075 
     43 H          -1.217000    3.797190    8.501077 H         1 <1>         0.056395 
     44 H          -1.799188    2.629624    9.737479 H         1 <1>         0.056395 
     45 H          -3.503213    3.160233    8.140992 H         1 <1>         0.209422 
     46 H           5.380010    2.782236    6.585278 H         1 <1>         0.052871 
     47 H           4.044116    2.737663    7.761660 H         1 <1>         0.052871 
     48 H           4.033329    3.947242    6.438152 H         1 <1>         0.052871 
     49 H           0.116764    2.319053   11.671500 H         1 <1>         0.064767 
     50 H           1.597805   -2.442436   10.874241 H         1 <1>         0.064413 
     51 H           1.542253   -0.843694    8.996526 H         1 <1>         0.062192 
     52 H           1.291862   -2.766812   13.238468 H         1 <1>         0.217422 
     53 H          -0.317684    0.667956   15.908347 H         1 <1>         0.052871 
     54 H           1.048681   -0.317965   15.329115 H         1 <1>         0.052871 
     55 H          -0.654729   -0.809703   14.972268 H         1 <1>         0.052871 
@<TRIPOS>BOND
     1    1    2 1    
     2    1   30 1    
     3    1   31 1    
     4    1   32 1    
     5    2    3 1    
     6    2   20 2    
     7    3    4 1    
     8    4    5 1    
     9    4   33 1    
    10    4   34 1    
    11    5    6 1    
    12    5   35 1    
    13    5   36 1    
    14    6    7 1    
    15    6   37 1    
    16    6   38 1    
    17    7    8 2    
    18    7   12 1    
    19    8    9 1    
    20    8   39 1    
    21    9   10 2    
    22    9   17 1    
    23   10   11 1    
    24   10   13 1    
    25   11   12 2    
    26   11   15 1    
    27   12   40 1    
    28   13   14 1    
    29   14   15 1    
    30   14   21 1    
    31   14   41 1    
    32   15   16 1    
    33   15   42 1    
    34   16   18 1    
    35   16   43 1    
    36   16   44 1    
    37   17   19 1    
    38   18   45 1    
    39   19   46 1    
    40   19   47 1    
    41   19   48 1    
    42   21   22 2    
    43   21   26 1    
    44   22   23 1    
    45   22   49 1    
    46   23   24 2    
    47   23   28 1    
    48   24   25 1    
    49   24   27 1    
    50   25   26 2    
    51   25   50 1    
    52   26   51 1    
    53   27   52 1    
    54   28   29 1    
    55   29   53 1    
    56   29   54 1    
    57   29   55 1    
@<TRIPOS>SUBSTRUCTURE
     1 ****        1 TEMP              0 ****  ****    0 ROOT 
@<TRIPOS>NORMAL
@<TRIPOS>FF_PBC
FORCE_FIELD_SETUP_FEATURE Force Field Setup information
v1.0  0 0.000000 0.000000 0.000000 0.000000 0.000000 0.000000 NONE 0 0 0 0 1 0 0 0 0 0 0 0 0
